ELMER SOLVER (v 8.4) STARTED AT: 2020/11/06 17:35:34
ELMER SOLVER (v 8.4) STARTED AT: 2020/11/06 17:35:34
ELMER SOLVER (v 8.4) STARTED AT: 2020/11/06 17:35:34
ELMER SOLVER (v 8.4) STARTED AT: 2020/11/06 17:35:34
/*---------------------------------------------------------------------------*\
  =========                 |
  \\      /  F ield         | OpenFOAM: The Open Source CFD Toolbox
   \\    /   O peration     | Website:  https://openfoam.org
    \\  /    A nd           | Version:  6
     \\/     M anipulation  |
\*---------------------------------------------------------------------------*/
Build  : 6
Exec   : mhdVxBPhasePimpleFoam -parallel
Date   : Nov 06 2020
Time   : 17:35:34
Host   : "treed"
PID    : 1207
ParCommInit:  Initialize #PEs:            4
ParCommInit:  Initialize #PEs:            4
I/O    : uncollated
ParCommInit:  Initialize #PEs:            4
Case   : /home/ivan/myCasesOpenFoam/cases/2D_TMF_hartmann
nProcs : 4
Slaves : 
3
(
"treed.1208"
"treed.1209"
"treed.1210"
)

Pstream initialized with:
    floatTransfer      : 0
    nProcsSimpleSum    : 0
    commsType          : nonBlocking
    polling iterations : 0
ParCommInit:  Initialize #PEs:            4
MAIN: 
MAIN: =============================================================
MAIN: ElmerSolver finite element software, Welcome!
MAIN: This program is free software licensed under (L)GPL
MAIN: Copyright 1st April 1995 - , CSC - IT Center for Science Ltd.
MAIN: Webpage http://www.csc.fi/elmer, Email elmeradm@csc.fi
MAIN: Version: 8.4 (Rev: 6a6d25a1, Compiled: 2020-10-15)
MAIN:  Running in parallel using 4 tasks.
MAIN:  Running with just one thread per task.
MAIN: =============================================================
sigFpe : Enabling floating point exception trapping (FOAM_SIGFPE).
fileModificationChecking : Monitoring run-time modified files using timeStampMaster (fileModificationSkew 10)
allowSystemOperations : Allowing user-supplied system call operations

// * * * * * * * * * * * * * * * * * * * * * * * * * * * * * * * * * * * * * //
Create time

Create mesh for time = 0


PIMPLE: No convergence criteria found


PIMPLE: Operating solver in PISO mode

Reading field p

Reading field U

Initializing field Jre

Initializing field Jim

Initializing field Jabs

Initializing field Jphase

Initializing field Bre

Initializing field Bim

Initializing field Babs

Initializing field Bphase

Initializing field UxBxB

Reading/calculating face flux field phi

Selecting incompressible transport model Newtonian
Selecting turbulence model type RAS
Selecting RAS turbulence model kOmegaSST
ERROR:: MagnetoDynamicsCalcFields_Init0: Could not determine target variable type (real or complex)
Selecting patchDistMethod meshWave
LoadInputFile: Reading only "Run Control" section
OpenIncludeFile: Trying to include file: elemer/mesh.names
MAIN: 
MAIN: 
MAIN: -------------------------------------
MAIN: Reading Model: case.sif
LoadInputFile: Scanning input file: case.sif
LoadInputFile: Scanning only size info
LoadInputFile: First time visiting
LoadInputFile: Reading base load of sif file
OpenIncludeFile: Trying to include file: elemer/mesh.names
ERROR:: MagnetoDynamicsCalcFields_Init0: Could not determine target variable type (real or complex)
-------------------------------------------------------
Primary job  terminated normally, but 1 process returned
a non-zero exit code.. Per user-direction, the job has been aborted.
-------------------------------------------------------
--------------------------------------------------------------------------
mpirun detected that one or more processes exited with non-zero status, thus causing
the job to be terminated. The first process to do so was:

  Process name: [[26863,1],7]
  Exit code:    1
--------------------------------------------------------------------------
ELMER SOLVER (v 8.4) STARTED AT: 2020/11/06 17:39:28
ELMER SOLVER (v 8.4) STARTED AT: 2020/11/06 17:39:28
ELMER SOLVER (v 8.4) STARTED AT: 2020/11/06 17:39:28
ELMER SOLVER (v 8.4) STARTED AT: 2020/11/06 17:39:28
ParCommInit:  Initialize #PEs:            4
ParCommInit:  Initialize #PEs:            4
MAIN: 
MAIN: =============================================================
MAIN: ElmerSolver finite element software, Welcome!
MAIN: This program is free software licensed under (L)GPL
ParCommInit:  Initialize #PEs:            4
MAIN: Copyright 1st April 1995 - , CSC - IT Center for Science Ltd.
MAIN: Webpage http://www.csc.fi/elmer, Email elmeradm@csc.fi
MAIN: Version: 8.4 (Rev: 6a6d25a1, Compiled: 2020-10-15)
ParCommInit:  Initialize #PEs:            4
/*---------------------------------------------------------------------------*\
  =========                 |
  \\      /  F ield         | OpenFOAM: The Open Source CFD Toolbox
   \\    /   O peration     | Website:  https://openfoam.org
    \\  /    A nd           | Version:  6
     \\/     M anipulation  |
\*---------------------------------------------------------------------------*/
MAIN:  Running in parallel using 4 tasks.
MAIN:  Running with just one thread per task.
MAIN: =============================================================
Build  : 6
Exec   : mhdVxBPhasePimpleFoam -parallel
Date   : Nov 06 2020
Time   : 17:39:28
Host   : "treed"
PID    : 1629
I/O    : uncollated
Case   : /home/ivan/myCasesOpenFoam/cases/2D_TMF_hartmann
nProcs : 4
Slaves : 
3
(
"treed.1630"
"treed.1631"
"treed.1632"
)

Pstream initialized with:
    floatTransfer      : 0
    nProcsSimpleSum    : 0
    commsType          : nonBlocking
    polling iterations : 0
sigFpe : Enabling floating point exception trapping (FOAM_SIGFPE).
fileModificationChecking : Monitoring run-time modified files using timeStampMaster (fileModificationSkew 10)
allowSystemOperations : Allowing user-supplied system call operations

// * * * * * * * * * * * * * * * * * * * * * * * * * * * * * * * * * * * * * //
Create time

Create mesh for time = 0


PIMPLE: No convergence criteria found


PIMPLE: Operating solver in PISO mode

Reading field p

Reading field U

Initializing field Jre

Initializing field Jim

Initializing field Jabs

Initializing field Jphase

Initializing field Bre

Initializing field Bim

Initializing field Babs

Initializing field Bphase

Initializing field UxBxB

Reading/calculating face flux field phi

ERROR:: MagnetoDynamicsCalcFields_Init0: Could not determine target variable type (real or complex)
-------------------------------------------------------
Primary job  terminated normally, but 1 process returned
a non-zero exit code.. Per user-direction, the job has been aborted.
-------------------------------------------------------
ERROR:: MagnetoDynamicsCalcFields_Init0: Could not determine target variable type (real or complex)
Selecting incompressible transport model Newtonian
Selecting turbulence model type RAS
Selecting RAS turbulence model kOmegaSST
Selecting patchDistMethod meshWave
bounding k, min: 0 max: 0.001 average: 0.001
bounding omega, min: 0 max: 0.001 average: 0.001
RAS
{
    RASModel        kOmegaSST;
    turbulence      on;
    printCoeffs     on;
    alphaK1         0.85;
    alphaK2         1;
    alphaOmega1     0.5;
    alphaOmega2     0.856;
    gamma1          0.555556;
    gamma2          0.44;
    beta1           0.075;
    beta2           0.0828;
    betaStar        0.09;
    a1              0.31;
    b1              1;
    c1              10;
    F3              false;
}

No MRF models present

No finite volume options present
Courant Number mean: 0.0105 max: 1.05

Starting time loop

LoadInputFile: Reading only "Run Control" section
OpenIncludeFile: Trying to include file: Elmer_mesh/mesh.names
MAIN: 
MAIN: 
MAIN: -------------------------------------
MAIN: Reading Model: case.sif
LoadInputFile: Scanning input file: case.sif
LoadInputFile: Scanning only size info
LoadInputFile: First time visiting
LoadInputFile: Reading base load of sif file
OpenIncludeFile: Trying to include file: Elmer_mesh/mesh.names
LoadInputFile: Loading input file: case.sif
LoadInputFile: Reading base load of sif file
OpenIncludeFile: Trying to include file: Elmer_mesh/mesh.names
CheckKeyword:  Unlisted keyword: [mapping] in section: [material 1]
CheckKeyword:  Unlisted keyword: [cd_re_1] in section: [initial condition 1]
CheckKeyword:  Unlisted keyword: [cd_re_2] in section: [initial condition 1]
CheckKeyword:  Unlisted keyword: [cd_re_3] in section: [initial condition 1]
CheckKeyword:  Unlisted keyword: [cd_im_1] in section: [initial condition 1]
CheckKeyword:  Unlisted keyword: [cd_im_2] in section: [initial condition 1]
CheckKeyword:  Unlisted keyword: [cd_im_3] in section: [initial condition 1]
CheckKeyword:  Unlisted keyword: [mf_re_1] in section: [initial condition 1]
CheckKeyword:  Unlisted keyword: [mf_re_2] in section: [initial condition 1]
CheckKeyword:  Unlisted keyword: [mf_re_3] in section: [initial condition 1]
CheckKeyword:  Unlisted keyword: [mf_im_1] in section: [initial condition 1]
CheckKeyword:  Unlisted keyword: [mf_im_2] in section: [initial condition 1]
CheckKeyword:  Unlisted keyword: [mf_im_3] in section: [initial condition 1]
CheckKeyword:  Unlisted keyword: [cd_re_1] in section: [body force 1]
CheckKeyword:  Unlisted keyword: [cd_re_2] in section: [body force 1]
CheckKeyword:  Unlisted keyword: [cd_im_1] in section: [body force 1]
CheckKeyword:  Unlisted keyword: [cd_im_2] in section: [body force 1]
CheckKeyword:  Unlisted keyword: [cd_im_3] in section: [body force 1]
CheckKeyword:  Unlisted keyword: [mf_re_1] in section: [body force 1]
CheckKeyword:  Unlisted keyword: [mf_re_3] in section: [body force 1]
CheckKeyword:  Unlisted keyword: [mf_im_1] in section: [body force 1]
CheckKeyword:  Unlisted keyword: [mf_im_3] in section: [body force 1]
CheckKeyword:  Unlisted keyword: [exported variable 1 mask] in section: [solver 2]
CheckKeyword:  Unlisted keyword: [exported variable 2 mask] in section: [solver 2]
CheckKeyword:  Unlisted keyword: [exported variable 3 mask] in section: [solver 2]
CheckKeyword:  Unlisted keyword: [exported variable 4 mask] in section: [solver 2]
CheckKeyword:  Unlisted keyword: [exported variable 4 im] in section: [solver 3]
CheckKeyword:  Unlisted keyword: [exported variable 5 im] in section: [solver 3]
--------------------------------------------------------------------------
mpirun detected that one or more processes exited with non-zero status, thus causing
the job to be terminated. The first process to do so was:

  Process name: [[27144,1],6]
  Exit code:    1
--------------------------------------------------------------------------
ELMER SOLVER (v 8.4) STARTED AT: 2020/11/06 18:40:59
ELMER SOLVER (v 8.4) STARTED AT: 2020/11/06 18:40:59
ELMER SOLVER (v 8.4) STARTED AT: 2020/11/06 18:40:59
ELMER SOLVER (v 8.4) STARTED AT: 2020/11/06 18:40:59
ParCommInit: ParCommInit:  Initialize #PEs:            4
ParCommInit:  Initialize #PEs:            4
 Initialize #PEs:            4
MAIN: 
MAIN: =============================================================
MAIN: ElmerSolver finite element software, Welcome!
MAIN: ParCommInit: This program is free software licensed under (L)GPL
MAIN: Copyright 1st April 1995 - , CSC - IT Center for Science Ltd.
MAIN: Webpage http://www.csc.fi/elmer, Email elmeradm@csc.fi
 Initialize #PEs:            4
/*---------------------------------------------------------------------------*\
MAIN: Version: 8.4 (Rev: 6a6d25a1, Compiled: 2020-10-15)
MAIN:  Running in parallel using 4 tasks.
MAIN:  Running with just one thread per task.
MAIN:   =========                 |
  \\      /  F ield         | OpenFOAM: The Open Source CFD Toolbox
   \\    /   O peration     | Website:  https://openfoam.org
    \\  /    A nd           | Version:  6
     \\/     M anipulation  |
\*---------------------------------------------------------------------------*/
Build  : 6
Exec   : mhdVxBPhasePimpleFoam -parallel
Date   : Nov 06 2020
Time   : 18:40:59
=============================================================
Host   : "treed"
PID    : 6567
I/O    : uncollated
Case   : /home/ivan/myCasesOpenFoam/cases/2D_TMF_hartmann
nProcs : 4
Slaves : 
3
(
"treed.6568"
"treed.6569"
"treed.6570"
)

Pstream initialized with:
    floatTransfer      : 0
    nProcsSimpleSum    : 0
    commsType          : nonBlocking
    polling iterations : 0
sigFpe : Enabling floating point exception trapping (FOAM_SIGFPE).
fileModificationChecking : Monitoring run-time modified files using timeStampMaster (fileModificationSkew 10)
allowSystemOperations : Allowing user-supplied system call operations

// * * * * * * * * * * * * * * * * * * * * * * * * * * * * * * * * * * * * * //
Create time

Create mesh for time = 0


PIMPLE: No convergence criteria found


PIMPLE: Operating solver in PISO mode

Reading field p

Reading field U

Initializing field Jre

Initializing field Jim

Initializing field Jabs

Initializing field Jphase

Initializing field Bre

Initializing field Bim

Initializing field Babs

Initializing field Bphase

Initializing field UxBxB

Reading/calculating face flux field phi

Selecting incompressible transport model Newtonian
Selecting turbulence model type RAS
Selecting RAS turbulence model kOmegaSST
Selecting patchDistMethod meshWave
bounding k, min: 0 max: 0.001 average: 0.001
bounding omega, min: 0 max: 0.001 average: 0.001
RAS
{
    RASModel        kOmegaSST;
    turbulence      on;
    printCoeffs     on;
    alphaK1         0.85;
    alphaK2         1;
    alphaOmega1     0.5;
    alphaOmega2     0.856;
    gamma1          0.555556;
    gamma2          0.44;
    beta1           0.075;
    beta2           0.0828;
    betaStar        0.09;
    a1              0.31;
    b1              1;
    c1              10;
    F3              false;
}

No MRF models present

No finite volume options present
Courant Number mean: 0.0105 max: 1.05

Starting time loop

LoadInputFile: Reading only "Run Control" section
OpenIncludeFile: Trying to include file: Elmer_mesh/mesh.names
MAIN: 
MAIN: 
MAIN: -------------------------------------
MAIN: Reading Model: case.sif
LoadInputFile: Scanning input file: case.sif
LoadInputFile: Scanning only size info
LoadInputFile: First time visiting
LoadInputFile: Reading base load of sif file
OpenIncludeFile: Trying to include file: Elmer_mesh/mesh.names
--------------------------------------------------------------------------
mpirun has exited due to process rank 4 with PID 0 on
node treed exiting improperly. There are three reasons this could occur:

1. this process did not call "init" before exiting, but others in
the job did. This can cause a job to hang indefinitely while it waits
for all processes to call "init". By rule, if one process calls "init",
then ALL processes must call "init" prior to termination.

2. this process called "init", but exited without calling "finalize".
By rule, all processes that call "init" MUST call "finalize" prior to
exiting or it will be considered an "abnormal termination"

3. this process called "MPI_Abort" or "orte_abort" and the mca parameter
orte_create_session_dirs is set to false. In this case, the run-time cannot
detect that the abort call was an abnormal termination. Hence, the only
error message you will receive is this one.

This may have caused other processes in the application to be
terminated by signals sent by mpirun (as reported here).

You can avoid this message by specifying -quiet on the mpirun command line.
--------------------------------------------------------------------------
ELMER SOLVER (v 8.4) STARTED AT: 2020/11/06 18:45:34
ELMER SOLVER (v 8.4) STARTED AT: 2020/11/06 18:45:34
ELMER SOLVER (v 8.4) STARTED AT: 2020/11/06 18:45:34
ELMER SOLVER (v 8.4) STARTED AT: 2020/11/06 18:45:34
ParCommInit:  Initialize #PEs:            4
ParCommInit:  Initialize #PEs:            4
MAIN: 
MAIN: =============================================================
MAIN: ElmerSolver finite element software, Welcome!
MAIN: This program is free software licensed under (L)GPL
MAIN: Copyright 1st April 1995 - , CSC - IT Center for Science Ltd.
MAIN: Webpage http://www.csc.fi/elmer, Email elmeradm@csc.fi
MAIN: Version: 8.4 (Rev: 6a6d25a1, Compiled: 2020-10-15)
MAIN:  Running in parallel using 4 tasks.
MAIN:  Running with just one thread per task.
MAIN: =============================================================
ParCommInit:  Initialize #PEs:            4
ParCommInit:  Initialize #PEs:            4
/*---------------------------------------------------------------------------*\
  =========                 |
  \\      /  F ield         | OpenFOAM: The Open Source CFD Toolbox
   \\    /   O peration     | Website:  https://openfoam.org
    \\  /    A nd           | Version:  6
     \\/     M anipulation  |
\*---------------------------------------------------------------------------*/
Build  : 6
Exec   : mhdVxBPhasePimpleFoam -parallel
Date   : Nov 06 2020
Time   : 18:45:35
Host   : "treed"
PID    : 7097
I/O    : uncollated
Case   : /home/ivan/myCasesOpenFoam/cases/2D_TMF_hartmann
nProcs : 4
Slaves : 
3
(
"treed.7098"
"treed.7099"
"treed.7100"
)

Pstream initialized with:
    floatTransfer      : 0
    nProcsSimpleSum    : 0
    commsType          : nonBlocking
    polling iterations : 0
sigFpe : Enabling floating point exception trapping (FOAM_SIGFPE).
fileModificationChecking : Monitoring run-time modified files using timeStampMaster (fileModificationSkew 10)
allowSystemOperations : Allowing user-supplied system call operations

// * * * * * * * * * * * * * * * * * * * * * * * * * * * * * * * * * * * * * //
Create time

Create mesh for time = 0


PIMPLE: No convergence criteria found


PIMPLE: Operating solver in PISO mode

Reading field p

Reading field U

Initializing field Jre

Initializing field Jim

Initializing field Jabs

Initializing field Jphase

Initializing field Bre

Initializing field Bim

Initializing field Babs

Initializing field Bphase

Initializing field UxBxB

Reading/calculating face flux field phi

WARNING:: LoadInputFile: There are no BCs in the system!
LoadInputFile: Reading only "Run Control" section
OpenIncludeFile: Trying to include file: Elmer_mesh/mesh.names
MAIN: 
MAIN: 
MAIN: -------------------------------------
MAIN: Reading Model: case.sif
LoadInputFile: Scanning input file: case.sif
LoadInputFile: Scanning only size info
LoadInputFile: First time visiting
LoadInputFile: Reading base load of sif file
Selecting incompressible transport model Newtonian
Selecting turbulence model type RAS
Selecting RAS turbulence model kOmegaSST
OpenIncludeFile: Trying to include file: Elmer_mesh/mesh.names
LoadInputFile: Loading input file: case.sif
LoadInputFile: Reading base load of sif file
OpenIncludeFile: Trying to include file: Elmer_mesh/mesh.names
CheckKeyword:  Unlisted keyword: [mapping] in section: [material 1]
CheckKeyword:  Unlisted keyword: [magnetization im 2] in section: [material 1]
CheckKeyword:  Unlisted keyword: [cd_re_1] in section: [initial condition 1]
CheckKeyword:  Unlisted keyword: [cd_re_2] in section: [initial condition 1]
CheckKeyword:  Unlisted keyword: [cd_re_3] in section: [initial condition 1]
CheckKeyword:  Unlisted keyword: [cd_im_1] in section: [initial condition 1]
CheckKeyword:  Unlisted keyword: [cd_im_2] in section: [initial condition 1]
CheckKeyword:  Unlisted keyword: [cd_im_3] in section: [initial condition 1]
CheckKeyword:  Unlisted keyword: [mf_re_1] in section: [initial condition 1]
CheckKeyword:  Unlisted keyword: [mf_re_2] in section: [initial condition 1]
CheckKeyword:  Unlisted keyword: [mf_re_3] in section: [initial condition 1]
CheckKeyword:  Unlisted keyword: [mf_im_1] in section: [initial condition 1]
CheckKeyword:  Unlisted keyword: [mf_im_2] in section: [initial condition 1]
CheckKeyword:  Unlisted keyword: [mf_im_3] in section: [initial condition 1]
CheckKeyword:  Unlisted keyword: [cd_re_1] in section: [body force 1]
CheckKeyword:  Unlisted keyword: [cd_re_2] in section: [body force 1]
CheckKeyword:  Unlisted keyword: [cd_re_3] in section: [body force 1]
CheckKeyword:  Unlisted keyword: [cd_im_1] in section: [body force 1]
CheckKeyword:  Unlisted keyword: [cd_im_2] in section: [body force 1]
CheckKeyword:  Unlisted keyword: [cd_im_3] in section: [body force 1]
CheckKeyword:  Unlisted keyword: [mf_re_1] in section: [body force 1]
CheckKeyword:  Unlisted keyword: [mf_re_3] in section: [body force 1]
CheckKeyword:  Unlisted keyword: [mf_im_1] in section: [body force 1]
CheckKeyword:  Unlisted keyword: [mf_im_3] in section: [body force 1]
CheckKeyword:  Unlisted keyword: [exported variable 1 mask] in section: [solver 2]
CheckKeyword:  Unlisted keyword: [exported variable 2 mask] in section: [solver 2]
CheckKeyword:  Unlisted keyword: [exported variable 3 mask] in section: [solver 2]
CheckKeyword:  Unlisted keyword: [exported variable 4 mask] in section: [solver 2]
WARNING:: LoadInputFile: There are no BCs in the system!
LoadInputFile: Number of Body Forces: 1
LoadInputFile: Number of Initial Conditions: 1
LoadInputFile: Number of Materials: 1
LoadInputFile: Number of Equations: 1
LoadInputFile: Number of Solvers: 5
LoadInputFile: Number of Bodies: 1
ElmerAsciiMesh: Base mesh name: ./Elmer_mesh
MapCoordinates: Scaling coordinates: 1.000E-03 1.000E-03 1.000E+00
Selecting patchDistMethod meshWave
LoadMesh: Elapsed REAL time:     0.0351 (s)
MAIN: -------------------------------------
OptimizeBandwidth: ---------------------------------------------------------
OptimizeBandwidth: Computing matrix structure for: mgdynamics...done.
OptimizeBandwidth: Half bandwidth without optimization: 3057
OptimizeBandwidth: 
OptimizeBandwidth: Bandwidth Optimization ...done.
OptimizeBandwidth: Half bandwidth after optimization: 95
OptimizeBandwidth: ---------------------------------------------------------
OptimizeBandwidth: ---------------------------------------------------------
OptimizeBandwidth: Computing matrix structure for: mgdynamicscalc...done.
OptimizeBandwidth: Half bandwidth without optimization: 3057
OptimizeBandwidth: 
OptimizeBandwidth: Bandwidth Optimization ...done.
OptimizeBandwidth: Half bandwidth after optimization: 95
OptimizeBandwidth: ---------------------------------------------------------
bounding k, min: 0 max: 0.001 average: 0.001
bounding omega, min: 0 max: 0.001 average: 0.001
RAS
{
    RASModel        kOmegaSST;
    turbulence      on;
    printCoeffs     on;
    alphaK1         0.85;
    alphaK2         1;
    alphaOmega1     0.5;
    alphaOmega2     0.856;
    gamma1          0.555556;
    gamma2          0.44;
    beta1           0.075;
    beta2           0.0828;
    betaStar        0.09;
    a1              0.31;
    b1              1;
    c1              10;
    F3              false;
}

No MRF models present

No finite volume options present
Courant Number mean: 0.0105 max: 1.05

Starting time loop

ElmerSolver: Number of timesteps to be saved: 2
MAIN: 
MAIN: -------------------------------------
MAIN:  Steady state iteration:            1
MAIN: -------------------------------------
MAIN: 
WARNING:: LoadInputFile: There are no BCs in the system!
WARNING:: LoadInputFile: There are no BCs in the system!
OpenFOAM2ElmerSolver: -----------------------------------------
OpenFOAM2ElmerSolver: Number of target variables: 4
OpenFOAM2ElmerSolver: Allocating OpenFOAM data structures
OpenFOAM2ElmerSolver: Allocating coordinates for interpolation
OpenFOAM2ElmerSolver: Total number of bodiesto communicate: 1
OpenFOAM2ElmerSolver: Starting communication for Body #1
OpenFOAM2ElmerSolver: Sending coordinates
Searching for cells..
O2E pair file does not exist, creating..
[3] 0.00801282% done, search speed 2 points/min, remaining 12479 points
[0] 0.00801282% done, search speed 2 points/min, remaining 12479 points
[2] 0.00801282% done, search speed 2 points/min, remaining 12479 points
[1] 0.00801282% done, search speed 2 points/min, remaining 12479 points
O2E pair file does not exist, creating..
O2E pair file does not exist, creating..
[3] 100% done, search speed 24958 points/min, remaining 0 points
O2E pair file does not exist, creating..
[1] 100% done, search speed 24958 points/min, remaining 0 points
[2] 100% done, search speed 24958 points/min, remaining 0 points
[0] 100% done, search speed 24958 points/min, remaining 0 points
OpenFOAM2Elmer Init = 1.66336 s

OpenFOAM2ElmerSolver: Receiving: of conductivity
OpenFOAM2Elmer: scalar = 0.0369449 s

OpenFOAM2ElmerSolver: Receiving: of u1
OpenFOAM2ElmerSolver: Receiving: of u2
OpenFOAM2ElmerSolver: Receiving: of u3
OpenFOAM2ElmerSolver: All done
OpenFOAM2ElmerSolver: -----------------------------------------
OpenFOAM2Elmer: vector = 0.0138801 s

MagnetoDynamics2DHarmonic: ------------------------------------------------
MagnetoDynamics2DHarmonic: Solving equation for magnetic vector potential
MagnetoDynamics2DHarmonic: ------------------------------------------------
      10 0.8348E+00
      20 0.3814E+00
      30 0.2832E+00
      40 0.2452E+00
      50 0.1877E+00
      60 0.1237E+00
      70 0.4124E-01
      80 0.3127E-01
      90 0.1656E-01
     100 0.8947E-02
     110 0.5150E-02
     117 0.9863E-03
ComputeChange: NS (ITER=1) (NRM,RELC): ( 0.31532804E-03  2.0000000     ) :: mgdynamics
ComputeChange: SS (ITER=1) (NRM,RELC): ( 0.31532804E-03  2.0000000     ) :: mgdynamics
MagnetoDynamicsCalcFields: Computing postprocessed fields
      16 0.7381E-08
ComputeChange: NS (ITER=1) (NRM,RELC): ( 0.20581147E-05  2.0000000     ) :: mgdynamicscalc
      10 0.6661E-08
ComputeChange: NS (ITER=2) (NRM,RELC): ( 0.68142354E-02  1.9987922     ) :: mgdynamicscalc
SolveLinearSystem: Solution trivially zero!
      17 0.6318E-08
ComputeChange: NS (ITER=4) (NRM,RELC): ( 0.33591003E-06  2.0000000     ) :: mgdynamicscalc
      15 0.7670E-08
ComputeChange: NS (ITER=5) (NRM,RELC): ( 0.69570745E-06 0.69754037     ) :: mgdynamicscalc
SolveLinearSystem: Solution trivially zero!
SolveLinearSystem: Solution trivially zero!
SolveLinearSystem: Solution trivially zero!
      13 0.9255E-08
ComputeChange: NS (ITER=9) (NRM,RELC): ( 0.65014772E-05  2.0000000     ) :: mgdynamicscalc
SolveLinearSystem: Solution trivially zero!
SolveLinearSystem: Solution trivially zero!
       8 0.7386E-08
ComputeChange: NS (ITER=12) (NRM,RELC): ( 0.14009656      2.0000000     ) :: mgdynamicscalc
      15 0.7711E-08
ComputeChange: NS (ITER=13) (NRM,RELC): ( 0.51502860E-07  1.9999985     ) :: mgdynamicscalc
      17 0.6456E-08
ComputeChange: NS (ITER=14) (NRM,RELC): ( 0.26011136E-07 0.65773216     ) :: mgdynamicscalc
SolveLinearSystem: Solution trivially zero!
      10 0.6865E-08
ComputeChange: NS (ITER=16) (NRM,RELC): ( 0.41303615E-03  2.0000000     ) :: mgdynamicscalc
      16 0.6543E-08
ComputeChange: NS (ITER=17) (NRM,RELC): ( 0.17858892E-06  1.9982712     ) :: mgdynamicscalc
SolveLinearSystem: Solution trivially zero!
MagnetoDynamicsCalcFields:  Eddy current power:    4.7820474480391264E-004
MagnetoDynamicsCalcFields: ElectroMagnetic Field Energy:    9.398E-01
ComputeChange: SS (ITER=1) (NRM,RELC): (  0.0000000      0.0000000     ) :: mgdynamicscalc
Elmer2OpenFOAMSolver: -----------------------------------------
Elmer2OpenFOAMSolver: Number of target variables: 12
Elmer2OpenFOAMSolver: Allocating OpenFOAM data structures
Sending data to Elmer..
BuildQuandrantTree: Start
BuildQuandrantTree: Ready
Elmer2OpenFOAM:  =   0.05198 s
Elmer2OpenFOAMSolver: All done
Elmer2OpenFOAMSolver: -----------------------------------------
MAIN: 
MAIN: -------------------------------------
MAIN:  Steady state iteration:            2
MAIN: -------------------------------------
MAIN: 
OpenFOAM2ElmerSolver: -----------------------------------------
Courant Number mean: 0.0105 max: 1.05
deltaT = 0.00119048
Time = 0.00119048

smoothSolver:  Solving for Ux, Initial residual = 1, Final residual = 0.233114, No Iterations 1000
smoothSolver:  Solving for Uz, Initial residual = 0.0870008, Final residual = 0.0017669, No Iterations 1000
GAMG:  Solving for p, Initial residual = 1, Final residual = 0.00655154, No Iterations 9
time step continuity errors : sum local = 0.000163814, global = -1.47437e-05, cumulative = -1.47437e-05
GAMG:  Solving for p, Initial residual = 0.00473488, Final residual = 5.09316e-08, No Iterations 16
time step continuity errors : sum local = 2.72947e-07, global = 6.89603e-08, cumulative = -1.46748e-05
smoothSolver:  Solving for omega, Initial residual = 0, Final residual = 0, No Iterations 0
OpenFOAM2ElmerSolver: Receiving: of conductivity
smoothSolver:  Solving for k, Initial residual = 1, Final residual = 0.194489, No Iterations 1000
OpenFOAM2ElmerSolver: Receiving: of u1
OpenFOAM2Elmer: scalar = 0.0187744 s

OpenFOAM2ElmerSolver: Receiving: of u2
OpenFOAM2ElmerSolver: Receiving: of u3
OpenFOAM2ElmerSolver: All done
OpenFOAM2ElmerSolver: -----------------------------------------
OpenFOAM2Elmer: vector = 0.0878485 s

MagnetoDynamics2DHarmonic: ------------------------------------------------
MagnetoDynamics2DHarmonic: Solving equation for magnetic vector potential
MagnetoDynamics2DHarmonic: ------------------------------------------------
ComputeChange: NS (ITER=1) (NRM,RELC): ( 0.31532804E-03  0.0000000     ) :: mgdynamics
ComputeChange: SS (ITER=2) (NRM,RELC): ( 0.31532804E-03  0.0000000     ) :: mgdynamics
MagnetoDynamicsCalcFields: Computing postprocessed fields
      16 0.7381E-08
ComputeChange: NS (ITER=1) (NRM,RELC): ( 0.20581147E-05  2.0000000     ) :: mgdynamicscalc
      10 0.6661E-08
ComputeChange: NS (ITER=2) (NRM,RELC): ( 0.68142354E-02  1.9987922     ) :: mgdynamicscalc
SolveLinearSystem: Solution trivially zero!
      17 0.6318E-08
ComputeChange: NS (ITER=4) (NRM,RELC): ( 0.33591003E-06  2.0000000     ) :: mgdynamicscalc
      15 0.7670E-08
ComputeChange: NS (ITER=5) (NRM,RELC): ( 0.69570745E-06 0.69754037     ) :: mgdynamicscalc
SolveLinearSystem: Solution trivially zero!
SolveLinearSystem: Solution trivially zero!
SolveLinearSystem: Solution trivially zero!
      14 0.5294E-08
ComputeChange: NS (ITER=9) (NRM,RELC): ( 0.65019578E-05  2.0000000     ) :: mgdynamicscalc
SolveLinearSystem: Solution trivially zero!
SolveLinearSystem: Solution trivially zero!
       8 0.7386E-08
ComputeChange: NS (ITER=12) (NRM,RELC): ( 0.14009656      2.0000000     ) :: mgdynamicscalc
      15 0.7711E-08
ComputeChange: NS (ITER=13) (NRM,RELC): ( 0.51502860E-07  1.9999985     ) :: mgdynamicscalc
      17 0.6456E-08
ComputeChange: NS (ITER=14) (NRM,RELC): ( 0.26011136E-07 0.65773216     ) :: mgdynamicscalc
SolveLinearSystem: Solution trivially zero!
      10 0.6865E-08
ComputeChange: NS (ITER=16) (NRM,RELC): ( 0.41303615E-03  2.0000000     ) :: mgdynamicscalc
      16 0.6543E-08
ComputeChange: NS (ITER=17) (NRM,RELC): ( 0.17858892E-06  1.9982712     ) :: mgdynamicscalc
SolveLinearSystem: Solution trivially zero!
MagnetoDynamicsCalcFields:  Eddy current power:    4.7820474531642607E-004
MagnetoDynamicsCalcFields: ElectroMagnetic Field Energy:    9.398E-01
ComputeChange: SS (ITER=2) (NRM,RELC): (  0.0000000      0.0000000     ) :: mgdynamicscalc
Elmer2OpenFOAMSolver: -----------------------------------------
Elmer2OpenFOAM:  =   0.02018 s
Elmer2OpenFOAMSolver: All done
Elmer2OpenFOAMSolver: -----------------------------------------
ExecutionTime = 5.36 s  ClockTime = 23 s

MAIN: 
MAIN: -------------------------------------
MAIN:  Steady state iteration:            3
MAIN: -------------------------------------
MAIN: 
OpenFOAM2ElmerSolver: -----------------------------------------
Courant Number mean: 2.52598 max: 19.9813
deltaT = 0.000297619
Time = 0.0014881

smoothSolver:  Solving for Ux, Initial residual = 0.875909, Final residual = 9.83783e-08, No Iterations 16
smoothSolver:  Solving for Uz, Initial residual = 0.663724, Final residual = 5.98596e-08, No Iterations 15
GAMG:  Solving for p, Initial residual = 0.290882, Final residual = 0.00141893, No Iterations 5
time step continuity errors : sum local = 0.00587388, global = 0.000735827, cumulative = 0.000721153
GAMG:  Solving for p, Initial residual = 0.0366063, Final residual = 7.80472e-08, No Iterations 17
time step continuity errors : sum local = 1.52568e-07, global = -1.6625e-08, cumulative = 0.000721136
smoothSolver:  Solving for omega, Initial residual = 0, Final residual = 0, No Iterations 0
smoothSolver:  Solving for k, Initial residual = 0.0954593, Final residual = 6.59418e-08, No Iterations 8
OpenFOAM2ElmerSolver: Receiving: of conductivity
OpenFOAM2ElmerSolver: Receiving: of u1
OpenFOAM2Elmer: scalar = 0.0156958 s

OpenFOAM2ElmerSolver: Receiving: of u2
OpenFOAM2ElmerSolver: Receiving: of u3
OpenFOAM2ElmerSolver: All done
OpenFOAM2ElmerSolver: -----------------------------------------
OpenFOAM2Elmer: vector = 0.0242717 s

MagnetoDynamics2DHarmonic: ------------------------------------------------
MagnetoDynamics2DHarmonic: Solving equation for magnetic vector potential
MagnetoDynamics2DHarmonic: ------------------------------------------------
ComputeChange: NS (ITER=1) (NRM,RELC): ( 0.31532804E-03  0.0000000     ) :: mgdynamics
ComputeChange: SS (ITER=3) (NRM,RELC): ( 0.31532804E-03  0.0000000     ) :: mgdynamics
MagnetoDynamicsCalcFields: Computing postprocessed fields
      16 0.7381E-08
ComputeChange: NS (ITER=1) (NRM,RELC): ( 0.20581147E-05  2.0000000     ) :: mgdynamicscalc
      10 0.6661E-08
ComputeChange: NS (ITER=2) (NRM,RELC): ( 0.68142354E-02  1.9987922     ) :: mgdynamicscalc
SolveLinearSystem: Solution trivially zero!
      17 0.6318E-08
ComputeChange: NS (ITER=4) (NRM,RELC): ( 0.33591003E-06  2.0000000     ) :: mgdynamicscalc
      15 0.7670E-08
ComputeChange: NS (ITER=5) (NRM,RELC): ( 0.69570745E-06 0.69754037     ) :: mgdynamicscalc
SolveLinearSystem: Solution trivially zero!
SolveLinearSystem: Solution trivially zero!
SolveLinearSystem: Solution trivially zero!
      14 0.6374E-08
ComputeChange: NS (ITER=9) (NRM,RELC): ( 0.65015904E-05  2.0000000     ) :: mgdynamicscalc
SolveLinearSystem: Solution trivially zero!
SolveLinearSystem: Solution trivially zero!
       8 0.7386E-08
ComputeChange: NS (ITER=12) (NRM,RELC): ( 0.14009656      2.0000000     ) :: mgdynamicscalc
      15 0.7711E-08
ComputeChange: NS (ITER=13) (NRM,RELC): ( 0.51502860E-07  1.9999985     ) :: mgdynamicscalc
      17 0.6456E-08
ComputeChange: NS (ITER=14) (NRM,RELC): ( 0.26011136E-07 0.65773216     ) :: mgdynamicscalc
SolveLinearSystem: Solution trivially zero!
      10 0.6865E-08
ComputeChange: NS (ITER=16) (NRM,RELC): ( 0.41303615E-03  2.0000000     ) :: mgdynamicscalc
      16 0.6543E-08
ComputeChange: NS (ITER=17) (NRM,RELC): ( 0.17858892E-06  1.9982712     ) :: mgdynamicscalc
SolveLinearSystem: Solution trivially zero!
MagnetoDynamicsCalcFields:  Eddy current power:    4.7820474530404545E-004
MagnetoDynamicsCalcFields: ElectroMagnetic Field Energy:    9.398E-01
ComputeChange: SS (ITER=3) (NRM,RELC): (  0.0000000      0.0000000     ) :: mgdynamicscalc
Elmer2OpenFOAMSolver: -----------------------------------------
Elmer2OpenFOAM:  =   0.01904 s
Elmer2OpenFOAMSolver: All done
Elmer2OpenFOAMSolver: -----------------------------------------
ExecutionTime = 5.65 s  ClockTime = 29 s

Courant Number mean: 0.644204 max: 3.10727
deltaT = 0.000344056
Time = 0.00183215

MAIN: 
MAIN: -------------------------------------
MAIN:  Steady state iteration:            4
MAIN: -------------------------------------
MAIN: 
OpenFOAM2ElmerSolver: -----------------------------------------
smoothSolver:  Solving for Ux, Initial residual = 0.486875, Final residual = 5.15366e-09, No Iterations 5
smoothSolver:  Solving for Uz, Initial residual = 0.259689, Final residual = 1.64622e-08, No Iterations 4
GAMG:  Solving for p, Initial residual = 0.080921, Final residual = 0.0004434, No Iterations 7
time step continuity errors : sum local = 8.28526e-05, global = -1.21441e-05, cumulative = 0.000708992
GAMG:  Solving for p, Initial residual = 0.0316479, Final residual = 3.07767e-08, No Iterations 19
time step continuity errors : sum local = 3.96021e-09, global = 7.31731e-10, cumulative = 0.000708993
smoothSolver:  Solving for omega, Initial residual = 0, Final residual = 0, No Iterations 0
smoothSolver:  Solving for k, Initial residual = 0.0845278, Final residual = 6.0274e-08, No Iterations 9
OpenFOAM2ElmerSolver: Receiving: of conductivity
OpenFOAM2Elmer: scalar = 0.0125991 s

OpenFOAM2ElmerSolver: Receiving: of u1
OpenFOAM2ElmerSolver: Receiving: of u2
OpenFOAM2ElmerSolver: Receiving: of u3
OpenFOAM2ElmerSolver: All done
OpenFOAM2ElmerSolver: -----------------------------------------
OpenFOAM2Elmer: vector = 0.0451697 s

MagnetoDynamics2DHarmonic: ------------------------------------------------
MagnetoDynamics2DHarmonic: Solving equation for magnetic vector potential
MagnetoDynamics2DHarmonic: ------------------------------------------------
ComputeChange: NS (ITER=1) (NRM,RELC): ( 0.31532804E-03  0.0000000     ) :: mgdynamics
ComputeChange: SS (ITER=4) (NRM,RELC): ( 0.31532804E-03  0.0000000     ) :: mgdynamics
MagnetoDynamicsCalcFields: Computing postprocessed fields
      16 0.7381E-08
ComputeChange: NS (ITER=1) (NRM,RELC): ( 0.20581147E-05  2.0000000     ) :: mgdynamicscalc
      10 0.6661E-08
ComputeChange: NS (ITER=2) (NRM,RELC): ( 0.68142354E-02  1.9987922     ) :: mgdynamicscalc
SolveLinearSystem: Solution trivially zero!
      17 0.6318E-08
ComputeChange: NS (ITER=4) (NRM,RELC): ( 0.33591003E-06  2.0000000     ) :: mgdynamicscalc
      15 0.7670E-08
ComputeChange: NS (ITER=5) (NRM,RELC): ( 0.69570745E-06 0.69754037     ) :: mgdynamicscalc
SolveLinearSystem: Solution trivially zero!
SolveLinearSystem: Solution trivially zero!
SolveLinearSystem: Solution trivially zero!
      14 0.6070E-08
ComputeChange: NS (ITER=9) (NRM,RELC): ( 0.65016155E-05  2.0000000     ) :: mgdynamicscalc
SolveLinearSystem: Solution trivially zero!
SolveLinearSystem: Solution trivially zero!
       8 0.7386E-08
ComputeChange: NS (ITER=12) (NRM,RELC): ( 0.14009656      2.0000000     ) :: mgdynamicscalc
      15 0.7711E-08
ComputeChange: NS (ITER=13) (NRM,RELC): ( 0.51502860E-07  1.9999985     ) :: mgdynamicscalc
      17 0.6456E-08
ComputeChange: NS (ITER=14) (NRM,RELC): ( 0.26011136E-07 0.65773216     ) :: mgdynamicscalc
SolveLinearSystem: Solution trivially zero!
      10 0.6865E-08
ComputeChange: NS (ITER=16) (NRM,RELC): ( 0.41303615E-03  2.0000000     ) :: mgdynamicscalc
      16 0.6543E-08
ComputeChange: NS (ITER=17) (NRM,RELC): ( 0.17858892E-06  1.9982712     ) :: mgdynamicscalc
SolveLinearSystem: Solution trivially zero!
MagnetoDynamicsCalcFields:  Eddy current power:    4.7820474530809273E-004
MagnetoDynamicsCalcFields: ElectroMagnetic Field Energy:    9.398E-01
ComputeChange: SS (ITER=4) (NRM,RELC): (  0.0000000      0.0000000     ) :: mgdynamicscalc
Elmer2OpenFOAMSolver: -----------------------------------------
Elmer2OpenFOAM:  =   0.01389 s
Elmer2OpenFOAMSolver: All done
Elmer2OpenFOAMSolver: -----------------------------------------
ExecutionTime = 5.84 s  ClockTime = 35 s

Courant Number mean: 0.739635 max: 2.64975
deltaT = 0.000408202
Time = 0.00224035

MAIN: 
MAIN: -------------------------------------
MAIN:  Steady state iteration:            5
MAIN: -------------------------------------
MAIN: 
OpenFOAM2ElmerSolver: -----------------------------------------
smoothSolver:  Solving for Ux, Initial residual = 0.0440827, Final residual = 7.89257e-09, No Iterations 5
smoothSolver:  Solving for Uz, Initial residual = 0.187892, Final residual = 4.97531e-08, No Iterations 5
GAMG:  Solving for p, Initial residual = 0.190971, Final residual = 0.00125292, No Iterations 5
time step continuity errors : sum local = 1.87894e-05, global = 3.7386e-06, cumulative = 0.000712731
GAMG:  Solving for p, Initial residual = 0.0419993, Final residual = 4.60807e-08, No Iterations 17
time step continuity errors : sum local = 5.25993e-10, global = -8.45749e-11, cumulative = 0.000712731
smoothSolver:  Solving for omega, Initial residual = 0, Final residual = 0, No Iterations 0
smoothSolver:  Solving for k, Initial residual = 0.0784171, Final residual = 6.03041e-08, No Iterations 11
OpenFOAM2ElmerSolver: Receiving: of conductivity
OpenFOAM2ElmerSolver: Receiving: of u1
OpenFOAM2Elmer: scalar = 0.0169207 s

OpenFOAM2ElmerSolver: Receiving: of u2
OpenFOAM2ElmerSolver: Receiving: of u3
OpenFOAM2ElmerSolver: All done
OpenFOAM2ElmerSolver: -----------------------------------------
OpenFOAM2Elmer: vector = 0.0204328 s

MagnetoDynamics2DHarmonic: ------------------------------------------------
MagnetoDynamics2DHarmonic: Solving equation for magnetic vector potential
MagnetoDynamics2DHarmonic: ------------------------------------------------
ComputeChange: NS (ITER=1) (NRM,RELC): ( 0.31532804E-03  0.0000000     ) :: mgdynamics
ComputeChange: SS (ITER=5) (NRM,RELC): ( 0.31532804E-03  0.0000000     ) :: mgdynamics
MagnetoDynamicsCalcFields: Computing postprocessed fields
      16 0.7381E-08
ComputeChange: NS (ITER=1) (NRM,RELC): ( 0.20581147E-05  2.0000000     ) :: mgdynamicscalc
      10 0.6661E-08
ComputeChange: NS (ITER=2) (NRM,RELC): ( 0.68142354E-02  1.9987922     ) :: mgdynamicscalc
SolveLinearSystem: Solution trivially zero!
      17 0.6318E-08
ComputeChange: NS (ITER=4) (NRM,RELC): ( 0.33591003E-06  2.0000000     ) :: mgdynamicscalc
      15 0.7670E-08
ComputeChange: NS (ITER=5) (NRM,RELC): ( 0.69570745E-06 0.69754037     ) :: mgdynamicscalc
SolveLinearSystem: Solution trivially zero!
SolveLinearSystem: Solution trivially zero!
SolveLinearSystem: Solution trivially zero!
      14 0.5978E-08
ComputeChange: NS (ITER=9) (NRM,RELC): ( 0.65015858E-05  2.0000000     ) :: mgdynamicscalc
SolveLinearSystem: Solution trivially zero!
SolveLinearSystem: Solution trivially zero!
       8 0.7386E-08
ComputeChange: NS (ITER=12) (NRM,RELC): ( 0.14009656      2.0000000     ) :: mgdynamicscalc
      15 0.7711E-08
ComputeChange: NS (ITER=13) (NRM,RELC): ( 0.51502860E-07  1.9999985     ) :: mgdynamicscalc
      17 0.6456E-08
ComputeChange: NS (ITER=14) (NRM,RELC): ( 0.26011136E-07 0.65773216     ) :: mgdynamicscalc
SolveLinearSystem: Solution trivially zero!
      10 0.6865E-08
ComputeChange: NS (ITER=16) (NRM,RELC): ( 0.41303615E-03  2.0000000     ) :: mgdynamicscalc
      16 0.6543E-08
ComputeChange: NS (ITER=17) (NRM,RELC): ( 0.17858892E-06  1.9982712     ) :: mgdynamicscalc
SolveLinearSystem: Solution trivially zero!
MagnetoDynamicsCalcFields:  Eddy current power:    4.7820474530607909E-004
MagnetoDynamicsCalcFields: ElectroMagnetic Field Energy:    9.398E-01
ComputeChange: SS (ITER=5) (NRM,RELC): (  0.0000000      0.0000000     ) :: mgdynamicscalc
Elmer2OpenFOAMSolver: -----------------------------------------
Elmer2OpenFOAM:  =   0.01521 s
Elmer2OpenFOAMSolver: All done
Elmer2OpenFOAMSolver: -----------------------------------------
ExecutionTime = 5.98 s  ClockTime = 41 s

Courant Number mean: 0.874849 max: 2.731
deltaT = 0.000482421
Time = 0.00272277

MAIN: 
MAIN: -------------------------------------
MAIN:  Steady state iteration:            6
MAIN: -------------------------------------
MAIN: 
OpenFOAM2ElmerSolver: -----------------------------------------
smoothSolver:  Solving for Ux, Initial residual = 0.0255061, Final residual = 1.38844e-08, No Iterations 5
smoothSolver:  Solving for Uz, Initial residual = 0.139759, Final residual = 3.11021e-08, No Iterations 5
GAMG:  Solving for p, Initial residual = 0.252294, Final residual = 0.0023654, No Iterations 4
time step continuity errors : sum local = 1.95363e-05, global = -4.469e-07, cumulative = 0.000712284
GAMG:  Solving for p, Initial residual = 0.0408716, Final residual = 7.25278e-08, No Iterations 16
time step continuity errors : sum local = 5.26351e-10, global = 3.7019e-11, cumulative = 0.000712284
smoothSolver:  Solving for omega, Initial residual = 0, Final residual = 0, No Iterations 0
smoothSolver:  Solving for k, Initial residual = 0.071015, Final residual = 7.88495e-08, No Iterations 12
OpenFOAM2ElmerSolver: Receiving: of conductivity
OpenFOAM2ElmerSolver: Receiving: of u1
OpenFOAM2Elmer: scalar = 0.0121619 s

OpenFOAM2ElmerSolver: Receiving: of u2
OpenFOAM2ElmerSolver: Receiving: of u3
OpenFOAM2ElmerSolver: All done
OpenFOAM2ElmerSolver: -----------------------------------------
MagnetoDynamics2DHarmonic: ------------------------------------------------
MagnetoDynamics2DHarmonic: Solving equation for magnetic vector potential
MagnetoDynamics2DHarmonic: ------------------------------------------------
OpenFOAM2Elmer: vector = 0.0507339 s

ComputeChange: NS (ITER=1) (NRM,RELC): ( 0.31532804E-03  0.0000000     ) :: mgdynamics
ComputeChange: SS (ITER=6) (NRM,RELC): ( 0.31532804E-03  0.0000000     ) :: mgdynamics
MagnetoDynamicsCalcFields: Computing postprocessed fields
      16 0.7381E-08
ComputeChange: NS (ITER=1) (NRM,RELC): ( 0.20581147E-05  2.0000000     ) :: mgdynamicscalc
      10 0.6661E-08
ComputeChange: NS (ITER=2) (NRM,RELC): ( 0.68142354E-02  1.9987922     ) :: mgdynamicscalc
SolveLinearSystem: Solution trivially zero!
      17 0.6318E-08
ComputeChange: NS (ITER=4) (NRM,RELC): ( 0.33591003E-06  2.0000000     ) :: mgdynamicscalc
      15 0.7670E-08
ComputeChange: NS (ITER=5) (NRM,RELC): ( 0.69570745E-06 0.69754037     ) :: mgdynamicscalc
SolveLinearSystem: Solution trivially zero!
SolveLinearSystem: Solution trivially zero!
SolveLinearSystem: Solution trivially zero!
      14 0.5908E-08
ComputeChange: NS (ITER=9) (NRM,RELC): ( 0.65015623E-05  2.0000000     ) :: mgdynamicscalc
SolveLinearSystem: Solution trivially zero!
SolveLinearSystem: Solution trivially zero!
       8 0.7386E-08
ComputeChange: NS (ITER=12) (NRM,RELC): ( 0.14009656      2.0000000     ) :: mgdynamicscalc
      15 0.7711E-08
ComputeChange: NS (ITER=13) (NRM,RELC): ( 0.51502860E-07  1.9999985     ) :: mgdynamicscalc
      17 0.6456E-08
ComputeChange: NS (ITER=14) (NRM,RELC): ( 0.26011136E-07 0.65773216     ) :: mgdynamicscalc
SolveLinearSystem: Solution trivially zero!
      10 0.6865E-08
ComputeChange: NS (ITER=16) (NRM,RELC): ( 0.41303615E-03  2.0000000     ) :: mgdynamicscalc
      16 0.6543E-08
ComputeChange: NS (ITER=17) (NRM,RELC): ( 0.17858892E-06  1.9982712     ) :: mgdynamicscalc
SolveLinearSystem: Solution trivially zero!
MagnetoDynamicsCalcFields:  Eddy current power:    4.7820474530536070E-004
MagnetoDynamicsCalcFields: ElectroMagnetic Field Energy:    9.398E-01
ComputeChange: SS (ITER=6) (NRM,RELC): (  0.0000000      0.0000000     ) :: mgdynamicscalc
Elmer2OpenFOAMSolver: -----------------------------------------
Elmer2OpenFOAM:  =   0.01516 s
Elmer2OpenFOAMSolver: All done
Elmer2OpenFOAMSolver: -----------------------------------------
ExecutionTime = 6.13 s  ClockTime = 49 s

Courant Number mean: 1.03192 max: 2.82676
deltaT = 0.000562824
Time = 0.0032856

MAIN: 
MAIN: -------------------------------------
MAIN:  Steady state iteration:            7
MAIN: -------------------------------------
MAIN: 
OpenFOAM2ElmerSolver: -----------------------------------------
smoothSolver:  Solving for Ux, Initial residual = 0.0210624, Final residual = 3.14427e-08, No Iterations 5
smoothSolver:  Solving for Uz, Initial residual = 0.106918, Final residual = 7.50078e-08, No Iterations 5
GAMG:  Solving for p, Initial residual = 0.221839, Final residual = 0.00169774, No Iterations 4
time step continuity errors : sum local = 1.42913e-05, global = 1.8958e-06, cumulative = 0.00071418
GAMG:  Solving for p, Initial residual = 0.0295039, Final residual = 5.90624e-08, No Iterations 14
time step continuity errors : sum local = 4.47853e-10, global = 6.56867e-11, cumulative = 0.00071418
smoothSolver:  Solving for omega, Initial residual = 0, Final residual = 0, No Iterations 0
smoothSolver:  Solving for k, Initial residual = 0.0621001, Final residual = 7.63647e-08, No Iterations 12
OpenFOAM2ElmerSolver: Receiving: of conductivity
OpenFOAM2ElmerSolver: Receiving: of u1
OpenFOAM2Elmer: scalar = 0.0118173 s

OpenFOAM2ElmerSolver: Receiving: of u2
OpenFOAM2ElmerSolver: Receiving: of u3
OpenFOAM2ElmerSolver: All done
OpenFOAM2ElmerSolver: -----------------------------------------
OpenFOAM2Elmer: vector = 0.017499 s

MagnetoDynamics2DHarmonic: ------------------------------------------------
MagnetoDynamics2DHarmonic: Solving equation for magnetic vector potential
MagnetoDynamics2DHarmonic: ------------------------------------------------
ComputeChange: NS (ITER=1) (NRM,RELC): ( 0.31532804E-03  0.0000000     ) :: mgdynamics
ComputeChange: SS (ITER=7) (NRM,RELC): ( 0.31532804E-03  0.0000000     ) :: mgdynamics
MagnetoDynamicsCalcFields: Computing postprocessed fields
      16 0.7381E-08
ComputeChange: NS (ITER=1) (NRM,RELC): ( 0.20581147E-05  2.0000000     ) :: mgdynamicscalc
      10 0.6661E-08
ComputeChange: NS (ITER=2) (NRM,RELC): ( 0.68142354E-02  1.9987922     ) :: mgdynamicscalc
SolveLinearSystem: Solution trivially zero!
      17 0.6318E-08
ComputeChange: NS (ITER=4) (NRM,RELC): ( 0.33591003E-06  2.0000000     ) :: mgdynamicscalc
      15 0.7670E-08
ComputeChange: NS (ITER=5) (NRM,RELC): ( 0.69570745E-06 0.69754037     ) :: mgdynamicscalc
SolveLinearSystem: Solution trivially zero!
SolveLinearSystem: Solution trivially zero!
SolveLinearSystem: Solution trivially zero!
      14 0.5872E-08
ComputeChange: NS (ITER=9) (NRM,RELC): ( 0.65015482E-05  2.0000000     ) :: mgdynamicscalc
SolveLinearSystem: Solution trivially zero!
SolveLinearSystem: Solution trivially zero!
       8 0.7386E-08
ComputeChange: NS (ITER=12) (NRM,RELC): ( 0.14009656      2.0000000     ) :: mgdynamicscalc
      15 0.7711E-08
ComputeChange: NS (ITER=13) (NRM,RELC): ( 0.51502860E-07  1.9999985     ) :: mgdynamicscalc
      17 0.6456E-08
ComputeChange: NS (ITER=14) (NRM,RELC): ( 0.26011136E-07 0.65773216     ) :: mgdynamicscalc
SolveLinearSystem: Solution trivially zero!
      10 0.6865E-08
ComputeChange: NS (ITER=16) (NRM,RELC): ( 0.41303615E-03  2.0000000     ) :: mgdynamicscalc
      16 0.6543E-08
ComputeChange: NS (ITER=17) (NRM,RELC): ( 0.17858892E-06  1.9982712     ) :: mgdynamicscalc
SolveLinearSystem: Solution trivially zero!
MagnetoDynamicsCalcFields:  Eddy current power:    4.7820474530512732E-004
MagnetoDynamicsCalcFields: ElectroMagnetic Field Energy:    9.398E-01
ComputeChange: SS (ITER=7) (NRM,RELC): (  0.0000000      0.0000000     ) :: mgdynamicscalc
Elmer2OpenFOAMSolver: -----------------------------------------
ExecutionTime = 6.3 s  ClockTime = 54 s

Courant Number mean: 1.20239 max: 2.86933
deltaT = 0.000657949
Time = 0.00394355

Elmer2OpenFOAM:  =   0.13469 s
Elmer2OpenFOAMSolver: All done
Elmer2OpenFOAMSolver: -----------------------------------------
MAIN: 
MAIN: -------------------------------------
MAIN:  Steady state iteration:            8
MAIN: -------------------------------------
MAIN: 
OpenFOAM2ElmerSolver: -----------------------------------------
smoothSolver:  Solving for Ux, Initial residual = 0.0197156, Final residual = 7.48781e-08, No Iterations 5
smoothSolver:  Solving for Uz, Initial residual = 0.0933964, Final residual = 5.22073e-08, No Iterations 6
GAMG:  Solving for p, Initial residual = 0.214801, Final residual = 0.00132283, No Iterations 4
time step continuity errors : sum local = 1.16299e-05, global = -1.77689e-06, cumulative = 0.000712403
GAMG:  Solving for p, Initial residual = 0.0223831, Final residual = 3.8361e-08, No Iterations 19
time step continuity errors : sum local = 3.24857e-10, global = -3.52667e-11, cumulative = 0.000712403
smoothSolver:  Solving for omega, Initial residual = 0, Final residual = 0, No Iterations 0
smoothSolver:  Solving for k, Initial residual = 0.0552862, Final residual = 6.73169e-08, No Iterations 12
OpenFOAM2ElmerSolver: Receiving: of conductivity
OpenFOAM2ElmerSolver: Receiving: of u1
OpenFOAM2Elmer: scalar = 0.0165097 s

OpenFOAM2ElmerSolver: Receiving: of u2
OpenFOAM2ElmerSolver: Receiving: of u3
OpenFOAM2ElmerSolver: All done
OpenFOAM2ElmerSolver: -----------------------------------------
MagnetoDynamics2DHarmonic: ------------------------------------------------
MagnetoDynamics2DHarmonic: Solving equation for magnetic vector potential
MagnetoDynamics2DHarmonic: ------------------------------------------------
OpenFOAM2Elmer: vector = 0.0342903 s

ComputeChange: NS (ITER=1) (NRM,RELC): ( 0.31532804E-03  0.0000000     ) :: mgdynamics
ComputeChange: SS (ITER=8) (NRM,RELC): ( 0.31532804E-03  0.0000000     ) :: mgdynamics
MagnetoDynamicsCalcFields: Computing postprocessed fields
      16 0.7381E-08
ComputeChange: NS (ITER=1) (NRM,RELC): ( 0.20581147E-05  2.0000000     ) :: mgdynamicscalc
      10 0.6661E-08
ComputeChange: NS (ITER=2) (NRM,RELC): ( 0.68142354E-02  1.9987922     ) :: mgdynamicscalc
SolveLinearSystem: Solution trivially zero!
      17 0.6318E-08
ComputeChange: NS (ITER=4) (NRM,RELC): ( 0.33591003E-06  2.0000000     ) :: mgdynamicscalc
      15 0.7670E-08
ComputeChange: NS (ITER=5) (NRM,RELC): ( 0.69570745E-06 0.69754037     ) :: mgdynamicscalc
SolveLinearSystem: Solution trivially zero!
SolveLinearSystem: Solution trivially zero!
SolveLinearSystem: Solution trivially zero!
      14 0.5837E-08
ComputeChange: NS (ITER=9) (NRM,RELC): ( 0.65015408E-05  2.0000000     ) :: mgdynamicscalc
SolveLinearSystem: Solution trivially zero!
SolveLinearSystem: Solution trivially zero!
       8 0.7386E-08
ComputeChange: NS (ITER=12) (NRM,RELC): ( 0.14009656      2.0000000     ) :: mgdynamicscalc
      15 0.7711E-08
ComputeChange: NS (ITER=13) (NRM,RELC): ( 0.51502860E-07  1.9999985     ) :: mgdynamicscalc
      17 0.6456E-08
ComputeChange: NS (ITER=14) (NRM,RELC): ( 0.26011136E-07 0.65773216     ) :: mgdynamicscalc
SolveLinearSystem: Solution trivially zero!
      10 0.6865E-08
ComputeChange: NS (ITER=16) (NRM,RELC): ( 0.41303615E-03  2.0000000     ) :: mgdynamicscalc
      16 0.6543E-08
ComputeChange: NS (ITER=17) (NRM,RELC): ( 0.17858892E-06  1.9982712     ) :: mgdynamicscalc
SolveLinearSystem: Solution trivially zero!
MagnetoDynamicsCalcFields:  Eddy current power:    4.7820474530508921E-004
MagnetoDynamicsCalcFields: ElectroMagnetic Field Energy:    9.398E-01
ComputeChange: SS (ITER=8) (NRM,RELC): (  0.0000000      0.0000000     ) :: mgdynamicscalc
Elmer2OpenFOAMSolver: -----------------------------------------
Elmer2OpenFOAM:  =   0.01478 s
Elmer2OpenFOAMSolver: All done
Elmer2OpenFOAMSolver: -----------------------------------------
ExecutionTime = 6.46 s  ClockTime = 60 s

Courant Number mean: 1.40441 max: 3.19385
deltaT = 0.000755024
Time = 0.00469857

MAIN: 
MAIN: -------------------------------------
MAIN:  Steady state iteration:            9
MAIN: -------------------------------------
MAIN: 
OpenFOAM2ElmerSolver: -----------------------------------------
smoothSolver:  Solving for Ux, Initial residual = 0.0195945, Final residual = 2.49865e-08, No Iterations 6
smoothSolver:  Solving for Uz, Initial residual = 0.0874457, Final residual = 4.37541e-08, No Iterations 7
GAMG:  Solving for p, Initial residual = 0.176185, Final residual = 0.000981717, No Iterations 4
time step continuity errors : sum local = 1.00223e-05, global = 1.68654e-06, cumulative = 0.00071409
GAMG:  Solving for p, Initial residual = 0.0181358, Final residual = 3.39756e-08, No Iterations 16
time step continuity errors : sum local = 3.27441e-10, global = 3.83139e-11, cumulative = 0.00071409
smoothSolver:  Solving for omega, Initial residual = 0, Final residual = 0, No Iterations 0
smoothSolver:  Solving for k, Initial residual = 0.0511315, Final residual = 5.26616e-08, No Iterations 12
OpenFOAM2ElmerSolver: Receiving: of conductivity
OpenFOAM2ElmerSolver: Receiving: of u1
OpenFOAM2Elmer: scalar = 0.015558 s

OpenFOAM2ElmerSolver: Receiving: of u2
OpenFOAM2ElmerSolver: Receiving: of u3
OpenFOAM2ElmerSolver: All done
OpenFOAM2ElmerSolver: -----------------------------------------
MagnetoDynamics2DHarmonic: ------------------------------------------------
MagnetoDynamics2DHarmonic: Solving equation for magnetic vector potential
MagnetoDynamics2DHarmonic: ------------------------------------------------
OpenFOAM2Elmer: vector = 0.0416194 s

ComputeChange: NS (ITER=1) (NRM,RELC): ( 0.31532804E-03  0.0000000     ) :: mgdynamics
ComputeChange: SS (ITER=9) (NRM,RELC): ( 0.31532804E-03  0.0000000     ) :: mgdynamics
MagnetoDynamicsCalcFields: Computing postprocessed fields
      16 0.7381E-08
ComputeChange: NS (ITER=1) (NRM,RELC): ( 0.20581147E-05  2.0000000     ) :: mgdynamicscalc
      10 0.6661E-08
ComputeChange: NS (ITER=2) (NRM,RELC): ( 0.68142354E-02  1.9987922     ) :: mgdynamicscalc
SolveLinearSystem: Solution trivially zero!
      17 0.6318E-08
ComputeChange: NS (ITER=4) (NRM,RELC): ( 0.33591003E-06  2.0000000     ) :: mgdynamicscalc
      15 0.7670E-08
ComputeChange: NS (ITER=5) (NRM,RELC): ( 0.69570745E-06 0.69754037     ) :: mgdynamicscalc
SolveLinearSystem: Solution trivially zero!
SolveLinearSystem: Solution trivially zero!
SolveLinearSystem: Solution trivially zero!
      14 0.5796E-08
ComputeChange: NS (ITER=9) (NRM,RELC): ( 0.65015377E-05  2.0000000     ) :: mgdynamicscalc
SolveLinearSystem: Solution trivially zero!
SolveLinearSystem: Solution trivially zero!
       8 0.7386E-08
ComputeChange: NS (ITER=12) (NRM,RELC): ( 0.14009656      2.0000000     ) :: mgdynamicscalc
      15 0.7711E-08
ComputeChange: NS (ITER=13) (NRM,RELC): ( 0.51502860E-07  1.9999985     ) :: mgdynamicscalc
      17 0.6456E-08
ComputeChange: NS (ITER=14) (NRM,RELC): ( 0.26011136E-07 0.65773216     ) :: mgdynamicscalc
SolveLinearSystem: Solution trivially zero!
      10 0.6865E-08
ComputeChange: NS (ITER=16) (NRM,RELC): ( 0.41303615E-03  2.0000000     ) :: mgdynamicscalc
      16 0.6543E-08
ComputeChange: NS (ITER=17) (NRM,RELC): ( 0.17858892E-06  1.9982712     ) :: mgdynamicscalc
SolveLinearSystem: Solution trivially zero!
MagnetoDynamicsCalcFields:  Eddy current power:    4.7820474530505159E-004
MagnetoDynamicsCalcFields: ElectroMagnetic Field Energy:    9.398E-01
ComputeChange: SS (ITER=9) (NRM,RELC): (  0.0000000      0.0000000     ) :: mgdynamicscalc
Elmer2OpenFOAMSolver: -----------------------------------------
Elmer2OpenFOAM:  =   0.01699 s
Elmer2OpenFOAMSolver: All done
Elmer2OpenFOAMSolver: -----------------------------------------
ExecutionTime = 6.63 s  ClockTime = 67 s

Courant Number mean: 1.61057 max: 3.68933
deltaT = 0.000854744
Time = 0.00555332

MAIN: 
MAIN: -------------------------------------
MAIN:  Steady state iteration:           10
MAIN: -------------------------------------
MAIN: 
OpenFOAM2ElmerSolver: -----------------------------------------
smoothSolver:  Solving for Ux, Initial residual = 0.019805, Final residual = 8.97506e-08, No Iterations 6
smoothSolver:  Solving for Uz, Initial residual = 0.0854741, Final residual = 6.21702e-08, No Iterations 8
GAMG:  Solving for p, Initial residual = 0.16694, Final residual = 0.000956934, No Iterations 4
time step continuity errors : sum local = 1.05504e-05, global = -9.78749e-07, cumulative = 0.000713111
GAMG:  Solving for p, Initial residual = 0.0164462, Final residual = 5.73809e-08, No Iterations 14
time step continuity errors : sum local = 6.3996e-10, global = -1.07742e-10, cumulative = 0.000713111
smoothSolver:  Solving for omega, Initial residual = 0, Final residual = 0, No Iterations 0
smoothSolver:  Solving for k, Initial residual = 0.0472528, Final residual = 4.38815e-08, No Iterations 12
OpenFOAM2ElmerSolver: Receiving: of conductivity
OpenFOAM2ElmerSolver: Receiving: of u1
OpenFOAM2Elmer: scalar = 0.010265 s

OpenFOAM2ElmerSolver: Receiving: of u2
OpenFOAM2ElmerSolver: Receiving: of u3
OpenFOAM2ElmerSolver: All done
OpenFOAM2ElmerSolver: -----------------------------------------
OpenFOAM2Elmer: vector = 0.0456717 s

MagnetoDynamics2DHarmonic: ------------------------------------------------
MagnetoDynamics2DHarmonic: Solving equation for magnetic vector potential
MagnetoDynamics2DHarmonic: ------------------------------------------------
ComputeChange: NS (ITER=1) (NRM,RELC): ( 0.31532804E-03  0.0000000     ) :: mgdynamics
ComputeChange: SS (ITER=10) (NRM,RELC): ( 0.31532804E-03  0.0000000     ) :: mgdynamics
MagnetoDynamicsCalcFields: Computing postprocessed fields
      16 0.7381E-08
ComputeChange: NS (ITER=1) (NRM,RELC): ( 0.20581147E-05  2.0000000     ) :: mgdynamicscalc
      10 0.6661E-08
ComputeChange: NS (ITER=2) (NRM,RELC): ( 0.68142354E-02  1.9987922     ) :: mgdynamicscalc
SolveLinearSystem: Solution trivially zero!
      17 0.6318E-08
ComputeChange: NS (ITER=4) (NRM,RELC): ( 0.33591003E-06  2.0000000     ) :: mgdynamicscalc
      15 0.7670E-08
ComputeChange: NS (ITER=5) (NRM,RELC): ( 0.69570745E-06 0.69754037     ) :: mgdynamicscalc
SolveLinearSystem: Solution trivially zero!
SolveLinearSystem: Solution trivially zero!
SolveLinearSystem: Solution trivially zero!
      14 0.5751E-08
ComputeChange: NS (ITER=9) (NRM,RELC): ( 0.65015368E-05  2.0000000     ) :: mgdynamicscalc
SolveLinearSystem: Solution trivially zero!
SolveLinearSystem: Solution trivially zero!
       8 0.7386E-08
ComputeChange: NS (ITER=12) (NRM,RELC): ( 0.14009656      2.0000000     ) :: mgdynamicscalc
      15 0.7711E-08
ComputeChange: NS (ITER=13) (NRM,RELC): ( 0.51502860E-07  1.9999985     ) :: mgdynamicscalc
      17 0.6456E-08
ComputeChange: NS (ITER=14) (NRM,RELC): ( 0.26011136E-07 0.65773216     ) :: mgdynamicscalc
SolveLinearSystem: Solution trivially zero!
      10 0.6865E-08
ComputeChange: NS (ITER=16) (NRM,RELC): ( 0.41303615E-03  2.0000000     ) :: mgdynamicscalc
      16 0.6543E-08
ComputeChange: NS (ITER=17) (NRM,RELC): ( 0.17858892E-06  1.9982712     ) :: mgdynamicscalc
SolveLinearSystem: Solution trivially zero!
MagnetoDynamicsCalcFields:  Eddy current power:    4.7820474530503831E-004
MagnetoDynamicsCalcFields: ElectroMagnetic Field Energy:    9.398E-01
ComputeChange: SS (ITER=10) (NRM,RELC): (  0.0000000      0.0000000     ) :: mgdynamicscalc
Elmer2OpenFOAMSolver: -----------------------------------------
Elmer2OpenFOAM:  =   0.01788 s
Elmer2OpenFOAMSolver: All done
Elmer2OpenFOAMSolver: -----------------------------------------
ExecutionTime = 6.8 s  ClockTime = 73 s

Courant Number mean: 1.82232 max: 4.16846
deltaT = 0.000945674
Time = 0.00649899

MAIN: 
MAIN: -------------------------------------
MAIN:  Steady state iteration:           11
MAIN: -------------------------------------
MAIN: 
smoothSolver:  Solving for Ux, Initial residual = 0.0199384, Final residual = 8.80962e-08, No Iterations 7
OpenFOAM2ElmerSolver: -----------------------------------------
smoothSolver:  Solving for Uz, Initial residual = 0.0822399, Final residual = 3.36463e-08, No Iterations 9
GAMG:  Solving for p, Initial residual = 0.15472, Final residual = 0.000728496, No Iterations 4
time step continuity errors : sum local = 9.147e-06, global = 1.139e-06, cumulative = 0.00071425
GAMG:  Solving for p, Initial residual = 0.0164192, Final residual = 3.98842e-08, No Iterations 14
time step continuity errors : sum local = 4.81627e-10, global = 6.84392e-11, cumulative = 0.00071425
smoothSolver:  Solving for omega, Initial residual = 0, Final residual = 0, No Iterations 0
smoothSolver:  Solving for k, Initial residual = 0.0428968, Final residual = 3.97753e-08, No Iterations 12
OpenFOAM2ElmerSolver: Receiving: of conductivity
OpenFOAM2ElmerSolver: Receiving: of u1
OpenFOAM2Elmer: scalar = 0.0146007 s

OpenFOAM2ElmerSolver: Receiving: of u2
OpenFOAM2ElmerSolver: Receiving: of u3
OpenFOAM2ElmerSolver: All done
OpenFOAM2ElmerSolver: -----------------------------------------
MagnetoDynamics2DHarmonic: ------------------------------------------------
MagnetoDynamics2DHarmonic: Solving equation for magnetic vector potential
MagnetoDynamics2DHarmonic: ------------------------------------------------
OpenFOAM2Elmer: vector = 0.0708578 s

ComputeChange: NS (ITER=1) (NRM,RELC): ( 0.31532804E-03  0.0000000     ) :: mgdynamics
ComputeChange: SS (ITER=11) (NRM,RELC): ( 0.31532804E-03  0.0000000     ) :: mgdynamics
MagnetoDynamicsCalcFields: Computing postprocessed fields
      16 0.7381E-08
ComputeChange: NS (ITER=1) (NRM,RELC): ( 0.20581147E-05  2.0000000     ) :: mgdynamicscalc
      10 0.6661E-08
ComputeChange: NS (ITER=2) (NRM,RELC): ( 0.68142354E-02  1.9987922     ) :: mgdynamicscalc
SolveLinearSystem: Solution trivially zero!
      17 0.6318E-08
ComputeChange: NS (ITER=4) (NRM,RELC): ( 0.33591003E-06  2.0000000     ) :: mgdynamicscalc
      15 0.7670E-08
ComputeChange: NS (ITER=5) (NRM,RELC): ( 0.69570745E-06 0.69754037     ) :: mgdynamicscalc
SolveLinearSystem: Solution trivially zero!
SolveLinearSystem: Solution trivially zero!
SolveLinearSystem: Solution trivially zero!
      14 0.5708E-08
ComputeChange: NS (ITER=9) (NRM,RELC): ( 0.65015371E-05  2.0000000     ) :: mgdynamicscalc
SolveLinearSystem: Solution trivially zero!
SolveLinearSystem: Solution trivially zero!
       8 0.7386E-08
ComputeChange: NS (ITER=12) (NRM,RELC): ( 0.14009656      2.0000000     ) :: mgdynamicscalc
      15 0.7711E-08
ComputeChange: NS (ITER=13) (NRM,RELC): ( 0.51502860E-07  1.9999985     ) :: mgdynamicscalc
      17 0.6456E-08
ComputeChange: NS (ITER=14) (NRM,RELC): ( 0.26011136E-07 0.65773216     ) :: mgdynamicscalc
SolveLinearSystem: Solution trivially zero!
      10 0.6865E-08
ComputeChange: NS (ITER=16) (NRM,RELC): ( 0.41303615E-03  2.0000000     ) :: mgdynamicscalc
      16 0.6543E-08
ComputeChange: NS (ITER=17) (NRM,RELC): ( 0.17858892E-06  1.9982712     ) :: mgdynamicscalc
SolveLinearSystem: Solution trivially zero!
MagnetoDynamicsCalcFields:  Eddy current power:    4.7820474530504601E-004
MagnetoDynamicsCalcFields: ElectroMagnetic Field Energy:    9.398E-01
ComputeChange: SS (ITER=11) (NRM,RELC): (  0.0000000      0.0000000     ) :: mgdynamicscalc
Elmer2OpenFOAMSolver: -----------------------------------------
ExecutionTime = 6.92 s  ClockTime = 78 s

Elmer2OpenFOAM:  =   0.03305 s
Elmer2OpenFOAMSolver: All done
Elmer2OpenFOAMSolver: -----------------------------------------
MAIN: 
MAIN: -------------------------------------
MAIN:  Steady state iteration:           12
MAIN: -------------------------------------
MAIN: 
OpenFOAM2ElmerSolver: -----------------------------------------
Courant Number mean: 2.0153 max: 4.60242
deltaT = 0.00101165
Time = 0.00751064

smoothSolver:  Solving for Ux, Initial residual = 0.0193647, Final residual = 4.65149e-08, No Iterations 9
smoothSolver:  Solving for Uz, Initial residual = 0.0784577, Final residual = 6.73271e-08, No Iterations 8
GAMG:  Solving for p, Initial residual = 0.150149, Final residual = 0.000889776, No Iterations 4
time step continuity errors : sum local = 1.14531e-05, global = -2.65892e-07, cumulative = 0.000713984
GAMG:  Solving for p, Initial residual = 0.0163455, Final residual = 4.38143e-08, No Iterations 15
time step continuity errors : sum local = 5.66674e-10, global = 6.20122e-11, cumulative = 0.000713984
smoothSolver:  Solving for omega, Initial residual = 0, Final residual = 0, No Iterations 0
smoothSolver:  Solving for k, Initial residual = 0.0392539, Final residual = 3.6785e-08, No Iterations 12
OpenFOAM2ElmerSolver: Receiving: of conductivity
OpenFOAM2Elmer: scalar = 0.00771589 s

OpenFOAM2ElmerSolver: Receiving: of u1
OpenFOAM2ElmerSolver: Receiving: of u2
OpenFOAM2ElmerSolver: Receiving: of u3
OpenFOAM2ElmerSolver: All done
OpenFOAM2ElmerSolver: -----------------------------------------
OpenFOAM2Elmer: vector = 0.0603595 s

MagnetoDynamics2DHarmonic: ------------------------------------------------
MagnetoDynamics2DHarmonic: Solving equation for magnetic vector potential
MagnetoDynamics2DHarmonic: ------------------------------------------------
ComputeChange: NS (ITER=1) (NRM,RELC): ( 0.31532804E-03  0.0000000     ) :: mgdynamics
ComputeChange: SS (ITER=12) (NRM,RELC): ( 0.31532804E-03  0.0000000     ) :: mgdynamics
MagnetoDynamicsCalcFields: Computing postprocessed fields
      16 0.7381E-08
ComputeChange: NS (ITER=1) (NRM,RELC): ( 0.20581147E-05  2.0000000     ) :: mgdynamicscalc
      10 0.6661E-08
ComputeChange: NS (ITER=2) (NRM,RELC): ( 0.68142354E-02  1.9987922     ) :: mgdynamicscalc
SolveLinearSystem: Solution trivially zero!
      17 0.6318E-08
ComputeChange: NS (ITER=4) (NRM,RELC): ( 0.33591003E-06  2.0000000     ) :: mgdynamicscalc
      15 0.7670E-08
ComputeChange: NS (ITER=5) (NRM,RELC): ( 0.69570745E-06 0.69754037     ) :: mgdynamicscalc
SolveLinearSystem: Solution trivially zero!
SolveLinearSystem: Solution trivially zero!
SolveLinearSystem: Solution trivially zero!
      14 0.5669E-08
ComputeChange: NS (ITER=9) (NRM,RELC): ( 0.65015399E-05  2.0000000     ) :: mgdynamicscalc
SolveLinearSystem: Solution trivially zero!
SolveLinearSystem: Solution trivially zero!
       8 0.7386E-08
ComputeChange: NS (ITER=12) (NRM,RELC): ( 0.14009656      2.0000000     ) :: mgdynamicscalc
      15 0.7711E-08
ComputeChange: NS (ITER=13) (NRM,RELC): ( 0.51502860E-07  1.9999985     ) :: mgdynamicscalc
      17 0.6456E-08
ComputeChange: NS (ITER=14) (NRM,RELC): ( 0.26011136E-07 0.65773216     ) :: mgdynamicscalc
SolveLinearSystem: Solution trivially zero!
      10 0.6865E-08
ComputeChange: NS (ITER=16) (NRM,RELC): ( 0.41303615E-03  2.0000000     ) :: mgdynamicscalc
      16 0.6543E-08
ComputeChange: NS (ITER=17) (NRM,RELC): ( 0.17858892E-06  1.9982712     ) :: mgdynamicscalc
SolveLinearSystem: Solution trivially zero!
MagnetoDynamicsCalcFields:  Eddy current power:    4.7820474530515763E-004
MagnetoDynamicsCalcFields: ElectroMagnetic Field Energy:    9.398E-01
ComputeChange: SS (ITER=12) (NRM,RELC): (  0.0000000      0.0000000     ) :: mgdynamicscalc
Elmer2OpenFOAMSolver: -----------------------------------------
Elmer2OpenFOAM:  =   0.01766 s
ExecutionTime = 7.12 s  ClockTime = 84 s

Courant Number mean: 2.15507 max: 4.95445
deltaT = 0.00101165
Time = 0.00852229

Elmer2OpenFOAMSolver: All done
Elmer2OpenFOAMSolver: -----------------------------------------
MAIN: 
MAIN: -------------------------------------
MAIN:  Steady state iteration:           13
MAIN: -------------------------------------
MAIN: 
OpenFOAM2ElmerSolver: -----------------------------------------
smoothSolver:  Solving for Ux, Initial residual = 0.0180064, Final residual = 8.3562e-08, No Iterations 10
smoothSolver:  Solving for Uz, Initial residual = 0.0720587, Final residual = 4.09284e-08, No Iterations 8
GAMG:  Solving for p, Initial residual = 0.129741, Final residual = 0.000613113, No Iterations 4
time step continuity errors : sum local = 7.81518e-06, global = 7.37322e-07, cumulative = 0.000714722
GAMG:  Solving for p, Initial residual = 0.0150856, Final residual = 7.71307e-08, No Iterations 15
time step continuity errors : sum local = 9.55189e-10, global = -7.51982e-11, cumulative = 0.000714721
smoothSolver:  Solving for omega, Initial residual = 0, Final residual = 0, No Iterations 0
smoothSolver:  Solving for k, Initial residual = 0.0357238, Final residual = 3.48081e-08, No Iterations 12
OpenFOAM2ElmerSolver: Receiving: of conductivity
OpenFOAM2Elmer: scalar = 0.00928456 s

OpenFOAM2ElmerSolver: Receiving: of u1
OpenFOAM2ElmerSolver: Receiving: of u2
OpenFOAM2ElmerSolver: Receiving: of u3
OpenFOAM2ElmerSolver: All done
OpenFOAM2ElmerSolver: -----------------------------------------
MagnetoDynamics2DHarmonic: ------------------------------------------------
MagnetoDynamics2DHarmonic: Solving equation for magnetic vector potential
MagnetoDynamics2DHarmonic: ------------------------------------------------
OpenFOAM2Elmer: vector = 0.0649099 s

ComputeChange: NS (ITER=1) (NRM,RELC): ( 0.31532804E-03  0.0000000     ) :: mgdynamics
ComputeChange: SS (ITER=13) (NRM,RELC): ( 0.31532804E-03  0.0000000     ) :: mgdynamics
MagnetoDynamicsCalcFields: Computing postprocessed fields
      16 0.7381E-08
ComputeChange: NS (ITER=1) (NRM,RELC): ( 0.20581147E-05  2.0000000     ) :: mgdynamicscalc
      10 0.6661E-08
ComputeChange: NS (ITER=2) (NRM,RELC): ( 0.68142354E-02  1.9987922     ) :: mgdynamicscalc
SolveLinearSystem: Solution trivially zero!
      17 0.6318E-08
ComputeChange: NS (ITER=4) (NRM,RELC): ( 0.33591003E-06  2.0000000     ) :: mgdynamicscalc
      15 0.7670E-08
ComputeChange: NS (ITER=5) (NRM,RELC): ( 0.69570745E-06 0.69754037     ) :: mgdynamicscalc
SolveLinearSystem: Solution trivially zero!
SolveLinearSystem: Solution trivially zero!
SolveLinearSystem: Solution trivially zero!
      14 0.5634E-08
ComputeChange: NS (ITER=9) (NRM,RELC): ( 0.65015456E-05  2.0000000     ) :: mgdynamicscalc
SolveLinearSystem: Solution trivially zero!
SolveLinearSystem: Solution trivially zero!
       8 0.7386E-08
ComputeChange: NS (ITER=12) (NRM,RELC): ( 0.14009656      2.0000000     ) :: mgdynamicscalc
      15 0.7711E-08
ComputeChange: NS (ITER=13) (NRM,RELC): ( 0.51502860E-07  1.9999985     ) :: mgdynamicscalc
      17 0.6456E-08
ComputeChange: NS (ITER=14) (NRM,RELC): ( 0.26011136E-07 0.65773216     ) :: mgdynamicscalc
SolveLinearSystem: Solution trivially zero!
      10 0.6865E-08
ComputeChange: NS (ITER=16) (NRM,RELC): ( 0.41303615E-03  2.0000000     ) :: mgdynamicscalc
      16 0.6543E-08
ComputeChange: NS (ITER=17) (NRM,RELC): ( 0.17858892E-06  1.9982712     ) :: mgdynamicscalc
SolveLinearSystem: Solution trivially zero!
MagnetoDynamicsCalcFields:  Eddy current power:    4.7820474530533696E-004
MagnetoDynamicsCalcFields: ElectroMagnetic Field Energy:    9.398E-01
ComputeChange: SS (ITER=13) (NRM,RELC): (  0.0000000      0.0000000     ) :: mgdynamicscalc
Elmer2OpenFOAMSolver: -----------------------------------------
ExecutionTime = 7.39 s  ClockTime = 91 s

Courant Number mean: 2.15442 max: 4.90234
deltaT = 0.00101165
Time = 0.00953394

Elmer2OpenFOAM:  =   0.06029 s
Elmer2OpenFOAMSolver: All done
Elmer2OpenFOAMSolver: -----------------------------------------
MAIN: 
MAIN: -------------------------------------
MAIN:  Steady state iteration:           14
MAIN: -------------------------------------
MAIN: 
OpenFOAM2ElmerSolver: -----------------------------------------
smoothSolver:  Solving for Ux, Initial residual = 0.016709, Final residual = 8.13487e-08, No Iterations 12
smoothSolver:  Solving for Uz, Initial residual = 0.0673523, Final residual = 5.42441e-08, No Iterations 8
GAMG:  Solving for p, Initial residual = 0.123088, Final residual = 0.000589228, No Iterations 4
time step continuity errors : sum local = 7.245e-06, global = -6.93464e-07, cumulative = 0.000714028
GAMG:  Solving for p, Initial residual = 0.0132971, Final residual = 5.77176e-08, No Iterations 16
time step continuity errors : sum local = 7.09003e-10, global = -5.43422e-11, cumulative = 0.000714028
smoothSolver:  Solving for omega, Initial residual = 0, Final residual = 0, No Iterations 0
smoothSolver:  Solving for k, Initial residual = 0.0336864, Final residual = 3.47786e-08, No Iterations 12
OpenFOAM2ElmerSolver: Receiving: of conductivity
OpenFOAM2ElmerSolver: Receiving: of u1
OpenFOAM2Elmer: scalar = 0.0100648 s

OpenFOAM2ElmerSolver: Receiving: of u2
OpenFOAM2ElmerSolver: Receiving: of u3
OpenFOAM2ElmerSolver: All done
OpenFOAM2ElmerSolver: -----------------------------------------
MagnetoDynamics2DHarmonic: ------------------------------------------------
MagnetoDynamics2DHarmonic: Solving equation for magnetic vector potential
MagnetoDynamics2DHarmonic: ------------------------------------------------
OpenFOAM2Elmer: vector = 0.035382 s

ComputeChange: NS (ITER=1) (NRM,RELC): ( 0.31532804E-03  0.0000000     ) :: mgdynamics
ComputeChange: SS (ITER=14) (NRM,RELC): ( 0.31532804E-03  0.0000000     ) :: mgdynamics
MagnetoDynamicsCalcFields: Computing postprocessed fields
      16 0.7381E-08
ComputeChange: NS (ITER=1) (NRM,RELC): ( 0.20581147E-05  2.0000000     ) :: mgdynamicscalc
      10 0.6661E-08
ComputeChange: NS (ITER=2) (NRM,RELC): ( 0.68142354E-02  1.9987922     ) :: mgdynamicscalc
SolveLinearSystem: Solution trivially zero!
      17 0.6318E-08
ComputeChange: NS (ITER=4) (NRM,RELC): ( 0.33591003E-06  2.0000000     ) :: mgdynamicscalc
      15 0.7670E-08
ComputeChange: NS (ITER=5) (NRM,RELC): ( 0.69570745E-06 0.69754037     ) :: mgdynamicscalc
SolveLinearSystem: Solution trivially zero!
SolveLinearSystem: Solution trivially zero!
SolveLinearSystem: Solution trivially zero!
      14 0.5606E-08
ComputeChange: NS (ITER=9) (NRM,RELC): ( 0.65015535E-05  2.0000000     ) :: mgdynamicscalc
SolveLinearSystem: Solution trivially zero!
SolveLinearSystem: Solution trivially zero!
       8 0.7386E-08
ComputeChange: NS (ITER=12) (NRM,RELC): ( 0.14009656      2.0000000     ) :: mgdynamicscalc
      15 0.7711E-08
ComputeChange: NS (ITER=13) (NRM,RELC): ( 0.51502860E-07  1.9999985     ) :: mgdynamicscalc
      17 0.6456E-08
ComputeChange: NS (ITER=14) (NRM,RELC): ( 0.26011136E-07 0.65773216     ) :: mgdynamicscalc
SolveLinearSystem: Solution trivially zero!
      10 0.6865E-08
ComputeChange: NS (ITER=16) (NRM,RELC): ( 0.41303615E-03  2.0000000     ) :: mgdynamicscalc
      16 0.6543E-08
ComputeChange: NS (ITER=17) (NRM,RELC): ( 0.17858892E-06  1.9982712     ) :: mgdynamicscalc
SolveLinearSystem: Solution trivially zero!
MagnetoDynamicsCalcFields:  Eddy current power:    4.7820474530557873E-004
MagnetoDynamicsCalcFields: ElectroMagnetic Field Energy:    9.398E-01
ComputeChange: SS (ITER=14) (NRM,RELC): (  0.0000000      0.0000000     ) :: mgdynamicscalc
Elmer2OpenFOAMSolver: -----------------------------------------
Elmer2OpenFOAM:  =   0.02041 s
Elmer2OpenFOAMSolver: All done
Elmer2OpenFOAMSolver: -----------------------------------------
ExecutionTime = 7.6 s  ClockTime = 97 s

MAIN: 
MAIN: -------------------------------------
MAIN:  Steady state iteration:           15
MAIN: -------------------------------------
MAIN: 
OpenFOAM2ElmerSolver: -----------------------------------------
Courant Number mean: 2.15372 max: 4.81028
deltaT = 0.00103759
Time = 0.0105715

smoothSolver:  Solving for Ux, Initial residual = 0.0162594, Final residual = 6.38518e-08, No Iterations 15
smoothSolver:  Solving for Uz, Initial residual = 0.0652329, Final residual = 7.00324e-08, No Iterations 8
GAMG:  Solving for p, Initial residual = 0.115919, Final residual = 0.000556542, No Iterations 4
time step continuity errors : sum local = 6.99048e-06, global = 4.18712e-07, cumulative = 0.000714447
GAMG:  Solving for p, Initial residual = 0.0129511, Final residual = 4.38579e-08, No Iterations 15
time step continuity errors : sum local = 5.30615e-10, global = -7.12751e-11, cumulative = 0.000714447
smoothSolver:  Solving for omega, Initial residual = 0, Final residual = 0, No Iterations 0
smoothSolver:  Solving for k, Initial residual = 0.0313334, Final residual = 3.55531e-08, No Iterations 12
OpenFOAM2ElmerSolver: Receiving: of conductivity
OpenFOAM2ElmerSolver: Receiving: of u1
OpenFOAM2Elmer: scalar = 0.0172673 s

OpenFOAM2ElmerSolver: Receiving: of u2
OpenFOAM2ElmerSolver: Receiving: of u3
OpenFOAM2ElmerSolver: All done
OpenFOAM2ElmerSolver: -----------------------------------------
OpenFOAM2Elmer: vector = 0.0824336 s

MagnetoDynamics2DHarmonic: ------------------------------------------------
MagnetoDynamics2DHarmonic: Solving equation for magnetic vector potential
MagnetoDynamics2DHarmonic: ------------------------------------------------
ComputeChange: NS (ITER=1) (NRM,RELC): ( 0.31532804E-03  0.0000000     ) :: mgdynamics
ComputeChange: SS (ITER=15) (NRM,RELC): ( 0.31532804E-03  0.0000000     ) :: mgdynamics
MagnetoDynamicsCalcFields: Computing postprocessed fields
      16 0.7381E-08
ComputeChange: NS (ITER=1) (NRM,RELC): ( 0.20581147E-05  2.0000000     ) :: mgdynamicscalc
      10 0.6661E-08
ComputeChange: NS (ITER=2) (NRM,RELC): ( 0.68142354E-02  1.9987922     ) :: mgdynamicscalc
SolveLinearSystem: Solution trivially zero!
      17 0.6318E-08
ComputeChange: NS (ITER=4) (NRM,RELC): ( 0.33591003E-06  2.0000000     ) :: mgdynamicscalc
      15 0.7670E-08
ComputeChange: NS (ITER=5) (NRM,RELC): ( 0.69570745E-06 0.69754037     ) :: mgdynamicscalc
SolveLinearSystem: Solution trivially zero!
SolveLinearSystem: Solution trivially zero!
SolveLinearSystem: Solution trivially zero!
      14 0.5583E-08
ComputeChange: NS (ITER=9) (NRM,RELC): ( 0.65015632E-05  2.0000000     ) :: mgdynamicscalc
SolveLinearSystem: Solution trivially zero!
SolveLinearSystem: Solution trivially zero!
       8 0.7386E-08
[...]
smoothSolver:  Solving for Uz, Initial residual = 0.43827, Final residual = 9.8311e-08, No Iterations 134
GAMG:  Solving for p, Initial residual = 0.753867, Final residual = 0.00241592, No Iterations 5
time step continuity errors : sum local = 7.89681e-05, global = 1.99792e-05, cumulative = -0.00256094
GAMG:  Solving for p, Initial residual = 0.17182, Final residual = 8.17453e-08, No Iterations 18
time step continuity errors : sum local = 5.23773e-09, global = -5.01495e-10, cumulative = -0.00256095
smoothSolver:  Solving for omega, Initial residual = 0, Final residual = 0, No Iterations 0
smoothSolver:  Solving for k, Initial residual = 0.000892965, Final residual = 8.80129e-08, No Iterations 28
OpenFOAM2ElmerSolver: Receiving: of conductivity
OpenFOAM2ElmerSolver: Receiving: of u1
OpenFOAM2Elmer: scalar = 0.0165174 s

OpenFOAM2ElmerSolver: Receiving: of u2
OpenFOAM2ElmerSolver: Receiving: of u3
OpenFOAM2ElmerSolver: All done
OpenFOAM2ElmerSolver: -----------------------------------------
OpenFOAM2Elmer: vector = 0.0132595 s

MagnetoDynamics2DHarmonic: ------------------------------------------------
MagnetoDynamics2DHarmonic: Solving equation for magnetic vector potential
MagnetoDynamics2DHarmonic: ------------------------------------------------
ComputeChange: NS (ITER=1) (NRM,RELC): ( 0.31532804E-03  0.0000000     ) :: mgdynamics
ComputeChange: SS (ITER=504) (NRM,RELC): ( 0.31532804E-03  0.0000000     ) :: mgdynamics
MagnetoDynamicsCalcFields: Computing postprocessed fields
      16 0.7381E-08
ComputeChange: NS (ITER=1) (NRM,RELC): ( 0.20581147E-05  2.0000000     ) :: mgdynamicscalc
      10 0.6661E-08
ComputeChange: NS (ITER=2) (NRM,RELC): ( 0.68142354E-02  1.9987922     ) :: mgdynamicscalc
SolveLinearSystem: Solution trivially zero!
      17 0.6318E-08
ComputeChange: NS (ITER=4) (NRM,RELC): ( 0.33591003E-06  2.0000000     ) :: mgdynamicscalc
      15 0.7670E-08
ComputeChange: NS (ITER=5) (NRM,RELC): ( 0.69570745E-06 0.69754037     ) :: mgdynamicscalc
SolveLinearSystem: Solution trivially zero!
SolveLinearSystem: Solution trivially zero!
SolveLinearSystem: Solution trivially zero!
      14 0.5951E-08
ComputeChange: NS (ITER=9) (NRM,RELC): ( 0.65014330E-05  2.0000000     ) :: mgdynamicscalc
SolveLinearSystem: Solution trivially zero!
SolveLinearSystem: Solution trivially zero!
       8 0.7386E-08
ComputeChange: NS (ITER=12) (NRM,RELC): ( 0.14009656      2.0000000     ) :: mgdynamicscalc
      15 0.7711E-08
ComputeChange: NS (ITER=13) (NRM,RELC): ( 0.51502860E-07  1.9999985     ) :: mgdynamicscalc
      17 0.6456E-08
ComputeChange: NS (ITER=14) (NRM,RELC): ( 0.26011136E-07 0.65773216     ) :: mgdynamicscalc
SolveLinearSystem: Solution trivially zero!
      10 0.6865E-08
ComputeChange: NS (ITER=16) (NRM,RELC): ( 0.41303615E-03  2.0000000     ) :: mgdynamicscalc
      16 0.6543E-08
ComputeChange: NS (ITER=17) (NRM,RELC): ( 0.17858892E-06  1.9982712     ) :: mgdynamicscalc
SolveLinearSystem: Solution trivially zero!
MagnetoDynamicsCalcFields:  Eddy current power:    4.7820474529307539E-004
MagnetoDynamicsCalcFields: ElectroMagnetic Field Energy:    9.398E-01
ComputeChange: SS (ITER=504) (NRM,RELC): (  0.0000000      0.0000000     ) :: mgdynamicscalc
Elmer2OpenFOAMSolver: -----------------------------------------
ExecutionTime = 135.81 s  ClockTime = 3069 s

Elmer2OpenFOAM:  =   0.01948 s
Elmer2OpenFOAMSolver: All done
Elmer2OpenFOAMSolver: -----------------------------------------
Courant Number mean: 4.00131 max: 4.78705
deltaT = 0.00187534
Time = 0.994374

MAIN: 
MAIN: -------------------------------------
MAIN:  Steady state iteration:          505
MAIN: -------------------------------------
MAIN: 
OpenFOAM2ElmerSolver: -----------------------------------------
smoothSolver:  Solving for Ux, Initial residual = 0.932558, Final residual = 9.88166e-08, No Iterations 196
smoothSolver:  Solving for Uz, Initial residual = 0.670071, Final residual = 9.65169e-08, No Iterations 163
GAMG:  Solving for p, Initial residual = 0.853669, Final residual = 0.00538438, No Iterations 4
time step continuity errors : sum local = 0.000167936, global = -3.93647e-05, cumulative = -0.00260031
GAMG:  Solving for p, Initial residual = 0.302844, Final residual = 5.05306e-08, No Iterations 18
time step continuity errors : sum local = 2.05274e-09, global = 4.9897e-10, cumulative = -0.00260031
smoothSolver:  Solving for omega, Initial residual = 0, Final residual = 0, No Iterations 0
smoothSolver:  Solving for k, Initial residual = 0.000682851, Final residual = 9.5044e-08, No Iterations 25
OpenFOAM2ElmerSolver: Receiving: of conductivity
OpenFOAM2Elmer: scalar = 0.00693146 s

OpenFOAM2ElmerSolver: Receiving: of u1
OpenFOAM2Elmer: vector = 0.0385095 s

OpenFOAM2ElmerSolver: Receiving: of u2
OpenFOAM2ElmerSolver: Receiving: of u3
OpenFOAM2ElmerSolver: All done
OpenFOAM2ElmerSolver: -----------------------------------------
MagnetoDynamics2DHarmonic: ------------------------------------------------
MagnetoDynamics2DHarmonic: Solving equation for magnetic vector potential
MagnetoDynamics2DHarmonic: ------------------------------------------------
ComputeChange: NS (ITER=1) (NRM,RELC): ( 0.31532804E-03  0.0000000     ) :: mgdynamics
ComputeChange: SS (ITER=505) (NRM,RELC): ( 0.31532804E-03  0.0000000     ) :: mgdynamics
MagnetoDynamicsCalcFields: Computing postprocessed fields
      16 0.7381E-08
ComputeChange: NS (ITER=1) (NRM,RELC): ( 0.20581147E-05  2.0000000     ) :: mgdynamicscalc
      10 0.6661E-08
ComputeChange: NS (ITER=2) (NRM,RELC): ( 0.68142354E-02  1.9987922     ) :: mgdynamicscalc
SolveLinearSystem: Solution trivially zero!
      17 0.6318E-08
ComputeChange: NS (ITER=4) (NRM,RELC): ( 0.33591003E-06  2.0000000     ) :: mgdynamicscalc
      15 0.7670E-08
ComputeChange: NS (ITER=5) (NRM,RELC): ( 0.69570745E-06 0.69754037     ) :: mgdynamicscalc
SolveLinearSystem: Solution trivially zero!
SolveLinearSystem: Solution trivially zero!
SolveLinearSystem: Solution trivially zero!
      14 0.5929E-08
ComputeChange: NS (ITER=9) (NRM,RELC): ( 0.65014380E-05  2.0000000     ) :: mgdynamicscalc
SolveLinearSystem: Solution trivially zero!
SolveLinearSystem: Solution trivially zero!
       8 0.7386E-08
ComputeChange: NS (ITER=12) (NRM,RELC): ( 0.14009656      2.0000000     ) :: mgdynamicscalc
      15 0.7711E-08
ComputeChange: NS (ITER=13) (NRM,RELC): ( 0.51502860E-07  1.9999985     ) :: mgdynamicscalc
      17 0.6456E-08
ComputeChange: NS (ITER=14) (NRM,RELC): ( 0.26011136E-07 0.65773216     ) :: mgdynamicscalc
SolveLinearSystem: Solution trivially zero!
      10 0.6865E-08
ComputeChange: NS (ITER=16) (NRM,RELC): ( 0.41303615E-03  2.0000000     ) :: mgdynamicscalc
      16 0.6543E-08
ComputeChange: NS (ITER=17) (NRM,RELC): ( 0.17858892E-06  1.9982712     ) :: mgdynamicscalc
SolveLinearSystem: Solution trivially zero!
MagnetoDynamicsCalcFields:  Eddy current power:    4.7820474529313404E-004
MagnetoDynamicsCalcFields: ElectroMagnetic Field Energy:    9.398E-01
ComputeChange: SS (ITER=505) (NRM,RELC): (  0.0000000      0.0000000     ) :: mgdynamicscalc
Elmer2OpenFOAMSolver: -----------------------------------------
ExecutionTime = 136.07 s  ClockTime = 3075 s

Courant Number mean: 3.99796 max: 4.54705
deltaT = 0.00187534
Time = 0.996249

Elmer2OpenFOAM:  =   0.03724 s
Elmer2OpenFOAMSolver: All done
Elmer2OpenFOAMSolver: -----------------------------------------
MAIN: 
MAIN: -------------------------------------
MAIN:  Steady state iteration:          506
MAIN: -------------------------------------
MAIN: 
OpenFOAM2ElmerSolver: -----------------------------------------
smoothSolver:  Solving for Ux, Initial residual = 0.922435, Final residual = 9.92306e-08, No Iterations 225
smoothSolver:  Solving for Uz, Initial residual = 0.462457, Final residual = 9.93581e-08, No Iterations 207
GAMG:  Solving for p, Initial residual = 0.794469, Final residual = 0.00621666, No Iterations 4
time step continuity errors : sum local = 0.000211575, global = 2.15365e-05, cumulative = -0.00257877
GAMG:  Solving for p, Initial residual = 0.238812, Final residual = 5.17825e-08, No Iterations 17
time step continuity errors : sum local = 2.79174e-09, global = -4.46499e-10, cumulative = -0.00257877
smoothSolver:  Solving for omega, Initial residual = 0, Final residual = 0, No Iterations 0
smoothSolver:  Solving for k, Initial residual = 0.000716573, Final residual = 9.34049e-08, No Iterations 29
OpenFOAM2ElmerSolver: Receiving: of conductivity
OpenFOAM2ElmerSolver: Receiving: of u1
OpenFOAM2Elmer: scalar = 0.0113588 s

OpenFOAM2ElmerSolver: Receiving: of u2
OpenFOAM2ElmerSolver: Receiving: of u3
OpenFOAM2ElmerSolver: All done
OpenFOAM2ElmerSolver: -----------------------------------------
OpenFOAM2Elmer: vector = 0.038118 s

MagnetoDynamics2DHarmonic: ------------------------------------------------
MagnetoDynamics2DHarmonic: Solving equation for magnetic vector potential
MagnetoDynamics2DHarmonic: ------------------------------------------------
ComputeChange: NS (ITER=1) (NRM,RELC): ( 0.31532804E-03  0.0000000     ) :: mgdynamics
ComputeChange: SS (ITER=506) (NRM,RELC): ( 0.31532804E-03  0.0000000     ) :: mgdynamics
MagnetoDynamicsCalcFields: Computing postprocessed fields
      16 0.7381E-08
ComputeChange: NS (ITER=1) (NRM,RELC): ( 0.20581147E-05  2.0000000     ) :: mgdynamicscalc
      10 0.6661E-08
ComputeChange: NS (ITER=2) (NRM,RELC): ( 0.68142354E-02  1.9987922     ) :: mgdynamicscalc
SolveLinearSystem: Solution trivially zero!
      17 0.6318E-08
ComputeChange: NS (ITER=4) (NRM,RELC): ( 0.33591003E-06  2.0000000     ) :: mgdynamicscalc
      15 0.7670E-08
ComputeChange: NS (ITER=5) (NRM,RELC): ( 0.69570745E-06 0.69754037     ) :: mgdynamicscalc
SolveLinearSystem: Solution trivially zero!
SolveLinearSystem: Solution trivially zero!
SolveLinearSystem: Solution trivially zero!
      14 0.5912E-08
ComputeChange: NS (ITER=9) (NRM,RELC): ( 0.65014361E-05  2.0000000     ) :: mgdynamicscalc
SolveLinearSystem: Solution trivially zero!
SolveLinearSystem: Solution trivially zero!
       8 0.7386E-08
ComputeChange: NS (ITER=12) (NRM,RELC): ( 0.14009656      2.0000000     ) :: mgdynamicscalc
      15 0.7711E-08
ComputeChange: NS (ITER=13) (NRM,RELC): ( 0.51502860E-07  1.9999985     ) :: mgdynamicscalc
      17 0.6456E-08
ComputeChange: NS (ITER=14) (NRM,RELC): ( 0.26011136E-07 0.65773216     ) :: mgdynamicscalc
SolveLinearSystem: Solution trivially zero!
      10 0.6865E-08
ComputeChange: NS (ITER=16) (NRM,RELC): ( 0.41303615E-03  2.0000000     ) :: mgdynamicscalc
      16 0.6543E-08
ComputeChange: NS (ITER=17) (NRM,RELC): ( 0.17858892E-06  1.9982712     ) :: mgdynamicscalc
SolveLinearSystem: Solution trivially zero!
MagnetoDynamicsCalcFields:  Eddy current power:    4.7820474529296697E-004
MagnetoDynamicsCalcFields: ElectroMagnetic Field Energy:    9.398E-01
ComputeChange: SS (ITER=506) (NRM,RELC): (  0.0000000      0.0000000     ) :: mgdynamicscalc
Elmer2OpenFOAMSolver: -----------------------------------------
ExecutionTime = 136.28 s  ClockTime = 3081 s

Elmer2OpenFOAM:  =   0.03609 s
Elmer2OpenFOAMSolver: All done
Elmer2OpenFOAMSolver: -----------------------------------------
MAIN: 
MAIN: -------------------------------------
MAIN:  Steady state iteration:          507
MAIN: -------------------------------------
MAIN: 
Courant Number mean: 3.99867 max: 4.6323
OpenFOAM2ElmerSolver: -----------------------------------------
deltaT = 0.00187534
Time = 0.998125

smoothSolver:  Solving for Ux, Initial residual = 0.925923, Final residual = 9.47565e-08, No Iterations 201
smoothSolver:  Solving for Uz, Initial residual = 0.552836, Final residual = 9.67881e-08, No Iterations 193
GAMG:  Solving for p, Initial residual = 0.788504, Final residual = 0.00291025, No Iterations 5
time step continuity errors : sum local = 9.58546e-05, global = -1.53923e-05, cumulative = -0.00259417
GAMG:  Solving for p, Initial residual = 0.189921, Final residual = 6.79805e-08, No Iterations 20
time step continuity errors : sum local = 4.3048e-09, global = 5.79057e-10, cumulative = -0.00259417
smoothSolver:  Solving for omega, Initial residual = 0, Final residual = 0, No Iterations 0
smoothSolver:  Solving for k, Initial residual = 0.000727256, Final residual = 8.77741e-08, No Iterations 27
OpenFOAM2ElmerSolver: Receiving: of conductivity
OpenFOAM2ElmerSolver: Receiving: of u1
OpenFOAM2Elmer: scalar = 0.00701836 s

OpenFOAM2ElmerSolver: Receiving: of u2
OpenFOAM2ElmerSolver: Receiving: of u3
OpenFOAM2ElmerSolver: All done
OpenFOAM2ElmerSolver: -----------------------------------------
OpenFOAM2Elmer: vector = 0.0182469 s

MagnetoDynamics2DHarmonic: ------------------------------------------------
MagnetoDynamics2DHarmonic: Solving equation for magnetic vector potential
MagnetoDynamics2DHarmonic: ------------------------------------------------
ComputeChange: NS (ITER=1) (NRM,RELC): ( 0.31532804E-03  0.0000000     ) :: mgdynamics
ComputeChange: SS (ITER=507) (NRM,RELC): ( 0.31532804E-03  0.0000000     ) :: mgdynamics
MagnetoDynamicsCalcFields: Computing postprocessed fields
      16 0.7381E-08
ComputeChange: NS (ITER=1) (NRM,RELC): ( 0.20581147E-05  2.0000000     ) :: mgdynamicscalc
      10 0.6661E-08
ComputeChange: NS (ITER=2) (NRM,RELC): ( 0.68142354E-02  1.9987922     ) :: mgdynamicscalc
SolveLinearSystem: Solution trivially zero!
      17 0.6318E-08
ComputeChange: NS (ITER=4) (NRM,RELC): ( 0.33591003E-06  2.0000000     ) :: mgdynamicscalc
      15 0.7670E-08
ComputeChange: NS (ITER=5) (NRM,RELC): ( 0.69570745E-06 0.69754037     ) :: mgdynamicscalc
SolveLinearSystem: Solution trivially zero!
SolveLinearSystem: Solution trivially zero!
SolveLinearSystem: Solution trivially zero!
      14 0.5915E-08
ComputeChange: NS (ITER=9) (NRM,RELC): ( 0.65014377E-05  2.0000000     ) :: mgdynamicscalc
SolveLinearSystem: Solution trivially zero!
SolveLinearSystem: Solution trivially zero!
       8 0.7386E-08
ComputeChange: NS (ITER=12) (NRM,RELC): ( 0.14009656      2.0000000     ) :: mgdynamicscalc
      15 0.7711E-08
ComputeChange: NS (ITER=13) (NRM,RELC): ( 0.51502860E-07  1.9999985     ) :: mgdynamicscalc
      17 0.6456E-08
ComputeChange: NS (ITER=14) (NRM,RELC): ( 0.26011136E-07 0.65773216     ) :: mgdynamicscalc
SolveLinearSystem: Solution trivially zero!
      10 0.6865E-08
ComputeChange: NS (ITER=16) (NRM,RELC): ( 0.41303615E-03  2.0000000     ) :: mgdynamicscalc
      16 0.6543E-08
ComputeChange: NS (ITER=17) (NRM,RELC): ( 0.17858892E-06  1.9982712     ) :: mgdynamicscalc
SolveLinearSystem: Solution trivially zero!
MagnetoDynamicsCalcFields:  Eddy current power:    4.7820474529303424E-004
MagnetoDynamicsCalcFields: ElectroMagnetic Field Energy:    9.398E-01
ComputeChange: SS (ITER=507) (NRM,RELC): (  0.0000000      0.0000000     ) :: mgdynamicscalc
Elmer2OpenFOAMSolver: -----------------------------------------
ExecutionTime = 136.55 s  ClockTime = 3087 s

Elmer2OpenFOAM:  =   0.04396 s
Elmer2OpenFOAMSolver: All done
Elmer2OpenFOAMSolver: -----------------------------------------
MAIN: 
MAIN: -------------------------------------
MAIN:  Steady state iteration:          508
MAIN: -------------------------------------
MAIN: 
Courant Number mean: 4.00247 max: 4.75739
deltaT = 0.00187534
Time = 1

OpenFOAM2ElmerSolver: -----------------------------------------
smoothSolver:  Solving for Ux, Initial residual = 0.947998, Final residual = 9.67091e-08, No Iterations 158
smoothSolver:  Solving for Uz, Initial residual = 0.618291, Final residual = 9.77728e-08, No Iterations 151
GAMG:  Solving for p, Initial residual = 0.82024, Final residual = 0.00301961, No Iterations 5
time step continuity errors : sum local = 9.38881e-05, global = 3.21339e-05, cumulative = -0.00256203
GAMG:  Solving for p, Initial residual = 0.260809, Final residual = 3.07618e-08, No Iterations 19
time step continuity errors : sum local = 1.3367e-09, global = -2.48059e-10, cumulative = -0.00256203
smoothSolver:  Solving for omega, Initial residual = 0, Final residual = 0, No Iterations 0
smoothSolver:  Solving for k, Initial residual = 0.000698188, Final residual = 8.98614e-08, No Iterations 27
OpenFOAM2ElmerSolver: Elmer has last iteration!
OpenFOAM2ElmerSolver: Receiving: of conductivity
OpenFOAM2Elmer: scalar = 0.00732459 s

OpenFOAM2ElmerSolver: Receiving: of u1
OpenFOAM2ElmerSolver: Receiving: of u2
OpenFOAM2ElmerSolver: Receiving: of u3
OpenFOAM2ElmerSolver: All done
OpenFOAM2ElmerSolver: -----------------------------------------
MagnetoDynamics2DHarmonic: ------------------------------------------------
MagnetoDynamics2DHarmonic: Solving equation for magnetic vector potential
MagnetoDynamics2DHarmonic: ------------------------------------------------
OpenFOAM2Elmer: vector = 0.0708356 s

ComputeChange: NS (ITER=1) (NRM,RELC): ( 0.31532804E-03  0.0000000     ) :: mgdynamics
ComputeChange: SS (ITER=508) (NRM,RELC): ( 0.31532804E-03  0.0000000     ) :: mgdynamics
MagnetoDynamicsCalcFields: Computing postprocessed fields
      16 0.7381E-08
ComputeChange: NS (ITER=1) (NRM,RELC): ( 0.20581147E-05  2.0000000     ) :: mgdynamicscalc
      10 0.6661E-08
ComputeChange: NS (ITER=2) (NRM,RELC): ( 0.68142354E-02  1.9987922     ) :: mgdynamicscalc
SolveLinearSystem: Solution trivially zero!
      17 0.6318E-08
ComputeChange: NS (ITER=4) (NRM,RELC): ( 0.33591003E-06  2.0000000     ) :: mgdynamicscalc
      15 0.7670E-08
ComputeChange: NS (ITER=5) (NRM,RELC): ( 0.69570745E-06 0.69754037     ) :: mgdynamicscalc
SolveLinearSystem: Solution trivially zero!
SolveLinearSystem: Solution trivially zero!
SolveLinearSystem: Solution trivially zero!
      14 0.5936E-08
ComputeChange: NS (ITER=9) (NRM,RELC): ( 0.65014355E-05  2.0000000     ) :: mgdynamicscalc
SolveLinearSystem: Solution trivially zero!
SolveLinearSystem: Solution trivially zero!
       8 0.7386E-08
ComputeChange: NS (ITER=12) (NRM,RELC): ( 0.14009656      2.0000000     ) :: mgdynamicscalc
      15 0.7711E-08
ComputeChange: NS (ITER=13) (NRM,RELC): ( 0.51502860E-07  1.9999985     ) :: mgdynamicscalc
      17 0.6456E-08
ComputeChange: NS (ITER=14) (NRM,RELC): ( 0.26011136E-07 0.65773216     ) :: mgdynamicscalc
SolveLinearSystem: Solution trivially zero!
      10 0.6865E-08
ComputeChange: NS (ITER=16) (NRM,RELC): ( 0.41303615E-03  2.0000000     ) :: mgdynamicscalc
      16 0.6543E-08
ComputeChange: NS (ITER=17) (NRM,RELC): ( 0.17858892E-06  1.9982712     ) :: mgdynamicscalc
SolveLinearSystem: Solution trivially zero!
MagnetoDynamicsCalcFields:  Eddy current power:    4.7820474529292804E-004
MagnetoDynamicsCalcFields: ElectroMagnetic Field Energy:    9.398E-01
ComputeChange: SS (ITER=508) (NRM,RELC): (  0.0000000      0.0000000     ) :: mgdynamicscalc
Elmer2OpenFOAMSolver: -----------------------------------------
Elmer2OpenFOAM: Elmer has last iteration!
ExecutionTime = 137 s  ClockTime = 3094 s

End

Elmer2OpenFOAM:  =   0.02012 s
Elmer2OpenFOAMSolver: All done
Elmer2OpenFOAMSolver: -----------------------------------------
Finalising parallel run
ElmerSolver: Found a positive exit condition, exiting...
ResultOutputSolver: -------------------------------------
ResultOutputSolver: Saving with prefix: elmer_results
ResultOutputSolver: Creating list for saving - if not present
CreateListForSaving: Field Variables for Saving
ResultOutputSolver: Saving in unstructured VTK XML (.vtu) format
VtuOutputSolver: Saving results in VTK XML format with prefix: elmer_results
VtuOutputSolver: Saving number of partitions: 4
WriteVtuFile: Writing variable: magnetic flux density re e
WriteVtuFile: Writing variable: magnetic flux density im e
WriteVtuFile: Writing variable: jxb re e
WriteVtuFile: Writing variable: jxb im e
WriteVtuFile: Writing variable: current density re e
WriteVtuFile: Writing variable: current density im e
ResultOutputSolver: -------------------------------------
ElmerSolver: *** Elmer Solver: ALL DONE ***
ElmerSolver: The end
SOLVER TOTAL TIME(CPU,REAL):      1757.38     3094.56
ELMER SOLVER FINISHED AT: 2020/11/06 19:37:09
